2025-03-07 11:27:21: case.setup starting 8714770.desched1
 ---------------------------------------------------
2025-03-07 11:27:22: case.setup success 8714770.desched1
 ---------------------------------------------------
2025-03-07 13:20:12: case.build starting 
 ---------------------------------------------------
2025-03-07 13:26:21: case.build success 
 ---------------------------------------------------
2025-03-07 13:27:32: case.submit starting 8721623.desched1
 ---------------------------------------------------
2025-03-07 13:27:32: case.submit success 8721623.desched1
 ---------------------------------------------------
2025-03-07 13:27:44: case.run starting 8721614.desched1
 ---------------------------------------------------
2025-03-07 13:27:46: model execution starting 8721614.desched1
 ---------------------------------------------------
2025-03-07 13:43:04: model execution success 8721614.desched1
 ---------------------------------------------------
2025-03-07 13:43:04: case.run success 8721614.desched1
 ---------------------------------------------------
2025-03-07 13:43:50: st_archive starting 8721623.desched1
 ---------------------------------------------------
2025-03-07 13:43:52: st_archive success 8721623.desched1
 ---------------------------------------------------
2025-03-07 14:08:02: build.clean starting 
 ---------------------------------------------------
2025-03-07 14:08:05: build.clean success 
 ---------------------------------------------------
2025-03-07 14:08:10: case.build starting 
 ---------------------------------------------------
2025-03-07 14:14:14: case.build success 
 ---------------------------------------------------
2025-03-07 14:23:32: case.submit starting 8722355.desched1
 ---------------------------------------------------
2025-03-07 14:23:32: case.submit success 8722355.desched1
 ---------------------------------------------------
2025-03-07 14:23:44: case.run starting 8722354.desched1
 ---------------------------------------------------
2025-03-07 14:23:48: model execution starting 8722354.desched1
 ---------------------------------------------------
2025-03-07 14:23:55: model execution error 
ERROR: Command: 'mpiexec  --label  --line-buffer  -n 1 /glade/derecho/scratch/marielj/hillslope_probing_MEDLYNSLOPE_35/bld/cesm.exe   >> cesm.log.$LID 2>&1 ' failed with error '' from dir '/glade/derecho/scratch/marielj/hillslope_probing_MEDLYNSLOPE_35/run'
 ---------------------------------------------------
2025-03-07 14:23:55: case.run error 
ERROR: RUN FAIL: Command 'mpiexec  --label  --line-buffer  -n 1 /glade/derecho/scratch/marielj/hillslope_probing_MEDLYNSLOPE_35/bld/cesm.exe   >> cesm.log.$LID 2>&1 ' failed
See log file for details: /glade/derecho/scratch/marielj/hillslope_probing_MEDLYNSLOPE_35/run/cesm.log.8722354.desched1.250307-142344
 ---------------------------------------------------
2025-03-07 14:42:45: build.clean starting 
 ---------------------------------------------------
2025-03-07 14:42:47: build.clean success 
 ---------------------------------------------------
2025-03-07 14:42:57: case.build starting 
 ---------------------------------------------------
2025-03-07 14:49:09: case.build success 
 ---------------------------------------------------
2025-03-07 14:51:54: case.submit starting 8722686.desched1
 ---------------------------------------------------
2025-03-07 14:51:54: case.submit success 8722686.desched1
 ---------------------------------------------------
2025-03-07 14:52:07: case.run starting 8722682.desched1
 ---------------------------------------------------
2025-03-07 14:52:09: model execution starting 8722682.desched1
 ---------------------------------------------------
2025-03-07 15:07:28: model execution success 8722682.desched1
 ---------------------------------------------------
2025-03-07 15:07:28: case.run success 8722682.desched1
 ---------------------------------------------------
2025-03-07 15:08:07: st_archive starting 8722686.desched1
 ---------------------------------------------------
2025-03-07 15:08:09: st_archive success 8722686.desched1
 ---------------------------------------------------
2025-03-07 15:24:23: case.submit starting 
 ---------------------------------------------------
2025-03-07 15:24:23: case.submit error 
ERROR: module command /glade/u/apps/casper/24.12/spack/opt/spack/lmod/8.7.37/gcc/12.4.0/diu3/lmod/lmod/libexec/lmod python load craype intel/2023.2.1 mkl ncarcompilers/1.0.0 cmake cray-mpich/8.1.27 netcdf-mpi/4.9.2 parallel-netcdf/1.12.3 parallelio/2.6.2 esmf/8.6.0b04 failed with message:
Lmod has detected the following error: The following module(s) are unknown: "craype"

Please check the spelling or version number. Also try "module spider ..."
It is also possible your cache file is out-of-date; it may help to try:
  $ module --ignore_cache load "craype"

Also make sure that all modulefiles written in TCL start with the string #%Module
 ---------------------------------------------------
2025-03-07 15:28:58: build.clean starting 
 ---------------------------------------------------
2025-03-07 15:29:02: build.clean success 
 ---------------------------------------------------
2025-03-07 15:29:06: case.build starting 
 ---------------------------------------------------
2025-03-07 15:35:28: case.build success 
 ---------------------------------------------------
2025-03-07 15:37:56: case.submit starting 8723226.desched1
 ---------------------------------------------------
2025-03-07 15:37:56: case.submit success 8723226.desched1
 ---------------------------------------------------
2025-03-07 15:38:08: case.run starting 8723225.desched1
 ---------------------------------------------------
2025-03-07 15:38:11: model execution starting 8723225.desched1
 ---------------------------------------------------
2025-03-07 15:38:21: model execution error 
ERROR: Command: 'mpiexec  --label  --line-buffer  -n 1 /glade/derecho/scratch/marielj/hillslope_probing_MEDLYNSLOPE_35/bld/cesm.exe   >> cesm.log.$LID 2>&1 ' failed with error '' from dir '/glade/derecho/scratch/marielj/hillslope_probing_MEDLYNSLOPE_35/run'
 ---------------------------------------------------
2025-03-07 15:38:21: case.run error 
ERROR: RUN FAIL: Command 'mpiexec  --label  --line-buffer  -n 1 /glade/derecho/scratch/marielj/hillslope_probing_MEDLYNSLOPE_35/bld/cesm.exe   >> cesm.log.$LID 2>&1 ' failed
See log file for details: /glade/derecho/scratch/marielj/hillslope_probing_MEDLYNSLOPE_35/run/cesm.log.8723225.desched1.250307-153808
 ---------------------------------------------------
2025-03-07 15:47:52: case.submit starting 8723338.desched1
 ---------------------------------------------------
2025-03-07 15:47:52: case.submit success 8723338.desched1
 ---------------------------------------------------
2025-03-07 15:48:40: case.run starting 8723337.desched1
 ---------------------------------------------------
2025-03-07 15:48:43: model execution starting 8723337.desched1
 ---------------------------------------------------
2025-03-07 16:04:03: model execution success 8723337.desched1
 ---------------------------------------------------
2025-03-07 16:04:03: case.run success 8723337.desched1
 ---------------------------------------------------
2025-03-07 16:05:55: st_archive starting 8723338.desched1
 ---------------------------------------------------
2025-03-07 16:05:58: st_archive success 8723338.desched1
 ---------------------------------------------------
2025-03-07 16:17:27: case.submit starting 8723533.desched1
 ---------------------------------------------------
2025-03-07 16:17:27: case.submit success 8723533.desched1
 ---------------------------------------------------
2025-03-07 16:18:09: case.run starting 8723532.desched1
 ---------------------------------------------------
2025-03-07 16:18:13: model execution starting 8723532.desched1
 ---------------------------------------------------
2025-03-07 16:33:45: model execution success 8723532.desched1
 ---------------------------------------------------
2025-03-07 16:33:45: case.run success 8723532.desched1
 ---------------------------------------------------
2025-03-07 16:35:06: st_archive starting 8723533.desched1
 ---------------------------------------------------
2025-03-07 16:35:09: st_archive success 8723533.desched1
 ---------------------------------------------------
2025-03-10 09:56:22: build.clean starting 
 ---------------------------------------------------
2025-03-10 09:56:26: build.clean success 
 ---------------------------------------------------
2025-03-10 09:56:55: case.build starting 
 ---------------------------------------------------
2025-03-10 10:03:03: case.build success 
 ---------------------------------------------------
2025-03-10 10:11:32: case.submit starting 8744639.desched1
 ---------------------------------------------------
2025-03-10 10:11:32: case.submit success 8744639.desched1
 ---------------------------------------------------
2025-03-10 10:11:45: case.run starting 8744638.desched1
 ---------------------------------------------------
2025-03-10 10:11:49: model execution starting 8744638.desched1
 ---------------------------------------------------
2025-03-10 10:27:43: model execution success 8744638.desched1
 ---------------------------------------------------
2025-03-10 10:27:43: case.run success 8744638.desched1
 ---------------------------------------------------
2025-03-10 10:27:59: st_archive starting 8744639.desched1
 ---------------------------------------------------
2025-03-10 10:28:01: st_archive success 8744639.desched1
 ---------------------------------------------------
