2025-03-11 09:33:25: case.setup starting 8759947.desched1
 ---------------------------------------------------
2025-03-11 09:33:27: case.setup success 8759947.desched1
 ---------------------------------------------------
2025-03-11 09:34:32: case.build starting 
 ---------------------------------------------------
2025-03-11 09:40:45: case.build success 
 ---------------------------------------------------
2025-03-11 09:48:11: case.submit starting 8760305.desched1
 ---------------------------------------------------
2025-03-11 09:48:11: case.submit success 8760305.desched1
 ---------------------------------------------------
2025-03-11 09:48:24: case.run starting 8760302.desched1
 ---------------------------------------------------
2025-03-11 09:48:27: model execution starting 8760302.desched1
 ---------------------------------------------------
2025-03-11 09:48:33: model execution error 
ERROR: Command: 'mpiexec  --label  --line-buffer  -n 1 /glade/derecho/scratch/marielj/hillslope-bayes-opt-2D-medlynintercept/bld/cesm.exe   >> cesm.log.$LID 2>&1 ' failed with error '' from dir '/glade/derecho/scratch/marielj/hillslope-bayes-opt-2D-medlynintercept/run'
 ---------------------------------------------------
2025-03-11 09:48:33: case.run error 
ERROR: RUN FAIL: Command 'mpiexec  --label  --line-buffer  -n 1 /glade/derecho/scratch/marielj/hillslope-bayes-opt-2D-medlynintercept/bld/cesm.exe   >> cesm.log.$LID 2>&1 ' failed
See log file for details: /glade/derecho/scratch/marielj/hillslope-bayes-opt-2D-medlynintercept/run/cesm.log.8760302.desched1.250311-094824
 ---------------------------------------------------
2025-03-11 09:53:21: case.submit starting 8760423.desched1
 ---------------------------------------------------
2025-03-11 09:53:21: case.submit success 8760423.desched1
 ---------------------------------------------------
2025-03-11 09:53:35: case.run starting 8760421.desched1
 ---------------------------------------------------
2025-03-11 09:53:38: model execution starting 8760421.desched1
 ---------------------------------------------------
2025-03-11 10:09:09: model execution success 8760421.desched1
 ---------------------------------------------------
2025-03-11 10:09:09: case.run success 8760421.desched1
 ---------------------------------------------------
2025-03-11 10:09:31: st_archive starting 8760423.desched1
 ---------------------------------------------------
2025-03-11 10:09:33: st_archive success 8760423.desched1
 ---------------------------------------------------
2025-03-11 10:09:47: case.submit starting 8760820.desched1
 ---------------------------------------------------
2025-03-11 10:09:47: case.submit success 8760820.desched1
 ---------------------------------------------------
2025-03-11 10:10:02: case.run starting 8760819.desched1
 ---------------------------------------------------
2025-03-11 10:10:06: model execution starting 8760819.desched1
 ---------------------------------------------------
2025-03-11 10:25:30: model execution success 8760819.desched1
 ---------------------------------------------------
2025-03-11 10:25:30: case.run success 8760819.desched1
 ---------------------------------------------------
2025-03-11 10:25:53: st_archive starting 8760820.desched1
 ---------------------------------------------------
2025-03-11 10:25:56: st_archive success 8760820.desched1
 ---------------------------------------------------
2025-03-11 10:26:08: case.submit starting 8761091.desched1
 ---------------------------------------------------
2025-03-11 10:26:08: case.submit success 8761091.desched1
 ---------------------------------------------------
2025-03-11 10:26:19: case.run starting 8761090.desched1
 ---------------------------------------------------
2025-03-11 10:26:21: model execution starting 8761090.desched1
 ---------------------------------------------------
2025-03-11 10:41:56: model execution success 8761090.desched1
 ---------------------------------------------------
2025-03-11 10:41:56: case.run success 8761090.desched1
 ---------------------------------------------------
2025-03-11 10:42:24: st_archive starting 8761091.desched1
 ---------------------------------------------------
2025-03-11 10:42:26: st_archive success 8761091.desched1
 ---------------------------------------------------
2025-03-11 10:42:38: case.submit starting 8761488.desched1
 ---------------------------------------------------
2025-03-11 10:42:38: case.submit success 8761488.desched1
 ---------------------------------------------------
2025-03-11 10:42:58: case.run starting 8761487.desched1
 ---------------------------------------------------
2025-03-11 10:43:01: model execution starting 8761487.desched1
 ---------------------------------------------------
2025-03-11 10:58:28: model execution success 8761487.desched1
 ---------------------------------------------------
2025-03-11 10:58:28: case.run success 8761487.desched1
 ---------------------------------------------------
2025-03-11 10:58:58: st_archive starting 8761488.desched1
 ---------------------------------------------------
2025-03-11 10:59:00: st_archive success 8761488.desched1
 ---------------------------------------------------
2025-03-11 10:59:11: case.submit starting 8761988.desched1
 ---------------------------------------------------
2025-03-11 10:59:11: case.submit success 8761988.desched1
 ---------------------------------------------------
2025-03-11 10:59:33: case.run starting 8761987.desched1
 ---------------------------------------------------
2025-03-11 10:59:37: model execution starting 8761987.desched1
 ---------------------------------------------------
2025-03-11 11:15:02: model execution success 8761987.desched1
 ---------------------------------------------------
2025-03-11 11:15:02: case.run success 8761987.desched1
 ---------------------------------------------------
2025-03-11 11:15:32: st_archive starting 8761988.desched1
 ---------------------------------------------------
2025-03-11 11:15:34: st_archive success 8761988.desched1
 ---------------------------------------------------
2025-03-11 11:15:48: case.submit starting 8762228.desched1
 ---------------------------------------------------
2025-03-11 11:15:48: case.submit success 8762228.desched1
 ---------------------------------------------------
2025-03-11 11:16:06: case.run starting 8762227.desched1
 ---------------------------------------------------
2025-03-11 11:16:08: model execution starting 8762227.desched1
 ---------------------------------------------------
2025-03-11 11:31:40: model execution success 8762227.desched1
 ---------------------------------------------------
2025-03-11 11:31:40: case.run success 8762227.desched1
 ---------------------------------------------------
2025-03-11 11:32:06: st_archive starting 8762228.desched1
 ---------------------------------------------------
2025-03-11 11:32:08: st_archive success 8762228.desched1
 ---------------------------------------------------
2025-03-11 11:32:19: case.submit starting 8762478.desched1
 ---------------------------------------------------
2025-03-11 11:32:19: case.submit success 8762478.desched1
 ---------------------------------------------------
2025-03-11 11:32:38: case.run starting 8762476.desched1
 ---------------------------------------------------
2025-03-11 11:32:41: model execution starting 8762476.desched1
 ---------------------------------------------------
2025-03-11 11:48:05: model execution success 8762476.desched1
 ---------------------------------------------------
2025-03-11 11:48:05: case.run success 8762476.desched1
 ---------------------------------------------------
2025-03-11 11:48:26: st_archive starting 8762478.desched1
 ---------------------------------------------------
2025-03-11 11:48:28: st_archive success 8762478.desched1
 ---------------------------------------------------
2025-03-11 11:48:38: case.submit starting 8762712.desched1
 ---------------------------------------------------
2025-03-11 11:48:38: case.submit success 8762712.desched1
 ---------------------------------------------------
2025-03-11 11:48:59: case.run starting 8762711.desched1
 ---------------------------------------------------
2025-03-11 11:49:02: model execution starting 8762711.desched1
 ---------------------------------------------------
2025-03-11 12:04:58: model execution success 8762711.desched1
 ---------------------------------------------------
2025-03-11 12:04:58: case.run success 8762711.desched1
 ---------------------------------------------------
2025-03-11 12:05:26: st_archive starting 8762712.desched1
 ---------------------------------------------------
2025-03-11 12:05:28: st_archive success 8762712.desched1
 ---------------------------------------------------
2025-03-11 12:05:41: case.submit starting 8762952.desched1
 ---------------------------------------------------
2025-03-11 12:05:41: case.submit success 8762952.desched1
 ---------------------------------------------------
2025-03-11 12:05:58: case.run starting 8762950.desched1
 ---------------------------------------------------
2025-03-11 12:06:01: model execution starting 8762950.desched1
 ---------------------------------------------------
2025-03-11 12:21:19: model execution success 8762950.desched1
 ---------------------------------------------------
2025-03-11 12:21:19: case.run success 8762950.desched1
 ---------------------------------------------------
2025-03-11 12:21:39: st_archive starting 8762952.desched1
 ---------------------------------------------------
2025-03-11 12:21:41: st_archive success 8762952.desched1
 ---------------------------------------------------
2025-03-11 12:21:57: case.submit starting 8763201.desched1
 ---------------------------------------------------
2025-03-11 12:21:57: case.submit success 8763201.desched1
 ---------------------------------------------------
2025-03-11 12:22:13: case.run starting 8763200.desched1
 ---------------------------------------------------
2025-03-11 12:22:17: model execution starting 8763200.desched1
 ---------------------------------------------------
2025-03-11 12:37:35: model execution success 8763200.desched1
 ---------------------------------------------------
2025-03-11 12:37:35: case.run success 8763200.desched1
 ---------------------------------------------------
2025-03-11 12:37:58: st_archive starting 8763201.desched1
 ---------------------------------------------------
2025-03-11 12:38:00: st_archive success 8763201.desched1
 ---------------------------------------------------
2025-03-11 12:38:11: case.submit starting 8763361.desched1
 ---------------------------------------------------
2025-03-11 12:38:11: case.submit success 8763361.desched1
 ---------------------------------------------------
2025-03-11 12:38:25: case.run starting 8763360.desched1
 ---------------------------------------------------
2025-03-11 12:38:28: model execution starting 8763360.desched1
 ---------------------------------------------------
2025-03-11 12:53:46: model execution success 8763360.desched1
 ---------------------------------------------------
2025-03-11 12:53:46: case.run success 8763360.desched1
 ---------------------------------------------------
2025-03-11 12:54:15: st_archive starting 8763361.desched1
 ---------------------------------------------------
2025-03-11 12:54:16: st_archive success 8763361.desched1
 ---------------------------------------------------
2025-03-11 12:54:30: case.submit starting 8763733.desched1
 ---------------------------------------------------
2025-03-11 12:54:30: case.submit success 8763733.desched1
 ---------------------------------------------------
2025-03-11 12:54:54: case.run starting 8763732.desched1
 ---------------------------------------------------
2025-03-11 12:54:57: model execution starting 8763732.desched1
 ---------------------------------------------------
2025-03-11 13:10:19: model execution success 8763732.desched1
 ---------------------------------------------------
2025-03-11 13:10:19: case.run success 8763732.desched1
 ---------------------------------------------------
2025-03-11 13:10:44: st_archive starting 8763733.desched1
 ---------------------------------------------------
2025-03-11 13:10:46: st_archive success 8763733.desched1
 ---------------------------------------------------
2025-03-11 13:10:59: case.submit starting 8763886.desched1
 ---------------------------------------------------
2025-03-11 13:10:59: case.submit success 8763886.desched1
 ---------------------------------------------------
2025-03-11 13:11:24: case.run starting 8763885.desched1
 ---------------------------------------------------
2025-03-11 13:11:28: model execution starting 8763885.desched1
 ---------------------------------------------------
2025-03-11 13:26:42: model execution success 8763885.desched1
 ---------------------------------------------------
2025-03-11 13:26:42: case.run success 8763885.desched1
 ---------------------------------------------------
2025-03-11 13:27:15: st_archive starting 8763886.desched1
 ---------------------------------------------------
2025-03-11 13:27:17: st_archive success 8763886.desched1
 ---------------------------------------------------
2025-03-11 13:27:28: case.submit starting 8764007.desched1
 ---------------------------------------------------
2025-03-11 13:27:28: case.submit success 8764007.desched1
 ---------------------------------------------------
2025-03-11 13:27:48: case.run starting 8764006.desched1
 ---------------------------------------------------
2025-03-11 13:27:50: model execution starting 8764006.desched1
 ---------------------------------------------------
2025-03-11 13:43:06: model execution success 8764006.desched1
 ---------------------------------------------------
2025-03-11 13:43:06: case.run success 8764006.desched1
 ---------------------------------------------------
2025-03-11 13:44:04: st_archive starting 8764007.desched1
 ---------------------------------------------------
2025-03-11 13:44:07: st_archive success 8764007.desched1
 ---------------------------------------------------
2025-03-11 13:44:18: case.submit starting 8764313.desched1
 ---------------------------------------------------
2025-03-11 13:44:18: case.submit success 8764313.desched1
 ---------------------------------------------------
2025-03-11 13:44:48: case.run starting 8764312.desched1
 ---------------------------------------------------
2025-03-11 13:44:50: model execution starting 8764312.desched1
 ---------------------------------------------------
2025-03-11 14:00:04: model execution success 8764312.desched1
 ---------------------------------------------------
2025-03-11 14:00:05: case.run success 8764312.desched1
 ---------------------------------------------------
2025-03-11 14:00:44: st_archive starting 8764313.desched1
 ---------------------------------------------------
2025-03-11 14:00:46: st_archive success 8764313.desched1
 ---------------------------------------------------
2025-03-11 14:00:57: case.submit starting 8764687.desched1
 ---------------------------------------------------
2025-03-11 14:00:57: case.submit success 8764687.desched1
 ---------------------------------------------------
2025-03-11 14:01:25: case.run starting 8764685.desched1
 ---------------------------------------------------
2025-03-11 14:01:27: model execution starting 8764685.desched1
 ---------------------------------------------------
2025-03-11 14:16:47: model execution success 8764685.desched1
 ---------------------------------------------------
2025-03-11 14:16:48: case.run success 8764685.desched1
 ---------------------------------------------------
2025-03-11 14:17:13: st_archive starting 8764687.desched1
 ---------------------------------------------------
2025-03-11 14:17:15: st_archive success 8764687.desched1
 ---------------------------------------------------
2025-03-11 14:17:29: case.submit starting 8764975.desched1
 ---------------------------------------------------
2025-03-11 14:17:29: case.submit success 8764975.desched1
 ---------------------------------------------------
2025-03-11 14:18:06: case.run starting 8764974.desched1
 ---------------------------------------------------
2025-03-11 14:18:09: model execution starting 8764974.desched1
 ---------------------------------------------------
2025-03-11 14:33:35: model execution success 8764974.desched1
 ---------------------------------------------------
2025-03-11 14:33:35: case.run success 8764974.desched1
 ---------------------------------------------------
2025-03-11 14:35:12: st_archive starting 8764975.desched1
 ---------------------------------------------------
2025-03-11 14:35:15: st_archive success 8764975.desched1
 ---------------------------------------------------
2025-03-11 14:35:28: case.submit starting 8765268.desched1
 ---------------------------------------------------
2025-03-11 14:35:28: case.submit success 8765268.desched1
 ---------------------------------------------------
2025-03-11 14:35:42: case.run starting 8765267.desched1
 ---------------------------------------------------
2025-03-11 14:35:44: model execution starting 8765267.desched1
 ---------------------------------------------------
2025-03-11 14:51:23: model execution success 8765267.desched1
 ---------------------------------------------------
2025-03-11 14:51:23: case.run success 8765267.desched1
 ---------------------------------------------------
2025-03-11 14:51:51: st_archive starting 8765268.desched1
 ---------------------------------------------------
2025-03-11 14:51:53: st_archive success 8765268.desched1
 ---------------------------------------------------
2025-03-11 14:52:13: case.submit starting 8765558.desched1
 ---------------------------------------------------
2025-03-11 14:52:13: case.submit success 8765558.desched1
 ---------------------------------------------------
2025-03-11 14:52:25: case.run starting 8765556.desched1
 ---------------------------------------------------
2025-03-11 14:52:27: model execution starting 8765556.desched1
 ---------------------------------------------------
2025-03-11 15:07:49: model execution success 8765556.desched1
 ---------------------------------------------------
2025-03-11 15:07:49: case.run success 8765556.desched1
 ---------------------------------------------------
2025-03-11 15:08:26: st_archive starting 8765558.desched1
 ---------------------------------------------------
2025-03-11 15:08:28: st_archive success 8765558.desched1
 ---------------------------------------------------
2025-03-11 15:09:19: case.submit starting 8765834.desched1
 ---------------------------------------------------
2025-03-11 15:09:19: case.submit success 8765834.desched1
 ---------------------------------------------------
2025-03-11 15:09:32: case.run starting 8765832.desched1
 ---------------------------------------------------
2025-03-11 15:09:35: model execution starting 8765832.desched1
 ---------------------------------------------------
2025-03-11 15:25:08: model execution success 8765832.desched1
 ---------------------------------------------------
2025-03-11 15:25:08: case.run success 8765832.desched1
 ---------------------------------------------------
2025-03-11 15:25:30: st_archive starting 8765834.desched1
 ---------------------------------------------------
2025-03-11 15:25:32: st_archive success 8765834.desched1
 ---------------------------------------------------
2025-03-11 15:25:50: case.submit starting 8766144.desched1
 ---------------------------------------------------
2025-03-11 15:25:50: case.submit success 8766144.desched1
 ---------------------------------------------------
2025-03-11 15:26:01: case.run starting 8766143.desched1
 ---------------------------------------------------
2025-03-11 15:26:04: model execution starting 8766143.desched1
 ---------------------------------------------------
2025-03-11 15:41:27: model execution success 8766143.desched1
 ---------------------------------------------------
2025-03-11 15:41:27: case.run success 8766143.desched1
 ---------------------------------------------------
2025-03-11 15:41:47: st_archive starting 8766144.desched1
 ---------------------------------------------------
2025-03-11 15:41:49: st_archive success 8766144.desched1
 ---------------------------------------------------
2025-03-11 15:42:07: case.submit starting 8766255.desched1
 ---------------------------------------------------
2025-03-11 15:42:07: case.submit success 8766255.desched1
 ---------------------------------------------------
2025-03-11 15:42:21: case.run starting 8766253.desched1
 ---------------------------------------------------
2025-03-11 15:42:24: model execution starting 8766253.desched1
 ---------------------------------------------------
2025-03-11 15:57:43: model execution success 8766253.desched1
 ---------------------------------------------------
2025-03-11 15:57:43: case.run success 8766253.desched1
 ---------------------------------------------------
2025-03-11 15:58:02: st_archive starting 8766255.desched1
 ---------------------------------------------------
2025-03-11 15:58:04: st_archive success 8766255.desched1
 ---------------------------------------------------
2025-03-11 15:58:15: case.submit starting 8766392.desched1
 ---------------------------------------------------
2025-03-11 15:58:15: case.submit success 8766392.desched1
 ---------------------------------------------------
2025-03-11 15:58:25: case.run starting 8766391.desched1
 ---------------------------------------------------
2025-03-11 15:58:28: model execution starting 8766391.desched1
 ---------------------------------------------------
2025-03-11 16:14:12: model execution success 8766391.desched1
 ---------------------------------------------------
2025-03-11 16:14:12: case.run success 8766391.desched1
 ---------------------------------------------------
2025-03-11 16:14:32: st_archive starting 8766392.desched1
 ---------------------------------------------------
2025-03-11 16:14:34: st_archive success 8766392.desched1
 ---------------------------------------------------
2025-03-11 16:15:28: case.submit starting 8766632.desched1
 ---------------------------------------------------
2025-03-11 16:15:28: case.submit success 8766632.desched1
 ---------------------------------------------------
2025-03-11 16:15:42: case.run starting 8766631.desched1
 ---------------------------------------------------
2025-03-11 16:15:45: model execution starting 8766631.desched1
 ---------------------------------------------------
2025-03-11 16:31:17: model execution success 8766631.desched1
 ---------------------------------------------------
2025-03-11 16:31:17: case.run success 8766631.desched1
 ---------------------------------------------------
2025-03-11 16:31:48: st_archive starting 8766632.desched1
 ---------------------------------------------------
2025-03-11 16:31:50: st_archive success 8766632.desched1
 ---------------------------------------------------
2025-03-11 16:32:12: case.submit starting 8766767.desched1
 ---------------------------------------------------
2025-03-11 16:32:12: case.submit success 8766767.desched1
 ---------------------------------------------------
2025-03-11 16:32:28: case.run starting 8766764.desched1
 ---------------------------------------------------
2025-03-11 16:32:30: model execution starting 8766764.desched1
 ---------------------------------------------------
2025-03-11 16:47:56: model execution success 8766764.desched1
 ---------------------------------------------------
2025-03-11 16:47:56: case.run success 8766764.desched1
 ---------------------------------------------------
2025-03-11 16:48:16: st_archive starting 8766767.desched1
 ---------------------------------------------------
2025-03-11 16:48:18: st_archive success 8766767.desched1
 ---------------------------------------------------
2025-03-11 16:48:30: case.submit starting 8766889.desched1
 ---------------------------------------------------
2025-03-11 16:48:30: case.submit success 8766889.desched1
 ---------------------------------------------------
2025-03-11 16:48:42: case.run starting 8766888.desched1
 ---------------------------------------------------
2025-03-11 16:48:44: model execution starting 8766888.desched1
 ---------------------------------------------------
2025-03-11 17:04:01: model execution success 8766888.desched1
 ---------------------------------------------------
2025-03-11 17:04:01: case.run success 8766888.desched1
 ---------------------------------------------------
2025-03-11 17:04:53: st_archive starting 8766889.desched1
 ---------------------------------------------------
2025-03-11 17:04:55: st_archive success 8766889.desched1
 ---------------------------------------------------
2025-03-11 17:05:10: case.submit starting 8767075.desched1
 ---------------------------------------------------
2025-03-11 17:05:10: case.submit success 8767075.desched1
 ---------------------------------------------------
2025-03-11 17:05:20: case.run starting 8767074.desched1
 ---------------------------------------------------
2025-03-11 17:05:23: model execution starting 8767074.desched1
 ---------------------------------------------------
2025-03-11 17:20:46: model execution success 8767074.desched1
 ---------------------------------------------------
2025-03-11 17:20:46: case.run success 8767074.desched1
 ---------------------------------------------------
2025-03-11 17:21:06: st_archive starting 8767075.desched1
 ---------------------------------------------------
2025-03-11 17:21:08: st_archive success 8767075.desched1
 ---------------------------------------------------
2025-03-11 17:21:21: case.submit starting 8767220.desched1
 ---------------------------------------------------
2025-03-11 17:21:21: case.submit success 8767220.desched1
 ---------------------------------------------------
2025-03-11 17:21:52: case.run starting 8767219.desched1
 ---------------------------------------------------
2025-03-11 17:21:54: model execution starting 8767219.desched1
 ---------------------------------------------------
2025-03-11 17:37:14: model execution success 8767219.desched1
 ---------------------------------------------------
2025-03-11 17:37:14: case.run success 8767219.desched1
 ---------------------------------------------------
2025-03-11 17:37:36: st_archive starting 8767220.desched1
 ---------------------------------------------------
2025-03-11 17:37:39: st_archive success 8767220.desched1
 ---------------------------------------------------
2025-03-11 17:37:50: case.submit starting 8767620.desched1
 ---------------------------------------------------
2025-03-11 17:37:50: case.submit success 8767620.desched1
 ---------------------------------------------------
2025-03-11 17:38:07: case.run starting 8767619.desched1
 ---------------------------------------------------
2025-03-11 17:38:09: model execution starting 8767619.desched1
 ---------------------------------------------------
2025-03-11 17:53:31: model execution success 8767619.desched1
 ---------------------------------------------------
2025-03-11 17:53:31: case.run success 8767619.desched1
 ---------------------------------------------------
2025-03-11 17:53:52: st_archive starting 8767620.desched1
 ---------------------------------------------------
2025-03-11 17:53:54: st_archive success 8767620.desched1
 ---------------------------------------------------
2025-03-11 17:54:09: case.submit starting 8767861.desched1
 ---------------------------------------------------
2025-03-11 17:54:09: case.submit success 8767861.desched1
 ---------------------------------------------------
2025-03-11 17:54:29: case.run starting 8767859.desched1
 ---------------------------------------------------
2025-03-11 17:54:32: model execution starting 8767859.desched1
 ---------------------------------------------------
2025-03-11 18:09:46: model execution success 8767859.desched1
 ---------------------------------------------------
2025-03-11 18:09:47: case.run success 8767859.desched1
 ---------------------------------------------------
2025-03-11 18:10:11: st_archive starting 8767861.desched1
 ---------------------------------------------------
2025-03-11 18:10:13: st_archive success 8767861.desched1
 ---------------------------------------------------
