2024-04-16 17:36:02: case.setup starting 4147667.desched1
 ---------------------------------------------------
2024-04-16 17:36:04: case.setup success 4147667.desched1
 ---------------------------------------------------
2024-04-16 17:52:36: build.clean starting 
 ---------------------------------------------------
2024-04-16 17:52:37: build.clean success 
 ---------------------------------------------------
2024-04-16 17:53:35: case.build starting 
 ---------------------------------------------------
2024-04-16 17:59:37: case.build success 
 ---------------------------------------------------
2024-04-16 17:59:59: case.submit starting 4148811.desched1
 ---------------------------------------------------
2024-04-16 17:59:59: case.submit success 4148811.desched1
 ---------------------------------------------------
2024-04-16 18:00:28: case.run starting 4148810.desched1
 ---------------------------------------------------
2024-04-16 18:01:02: model execution starting 4148810.desched1
 ---------------------------------------------------
2024-04-16 18:01:24: model execution error 
ERROR: Command: 'mpiexec  --label  --line-buffer  -n 1 /glade/derecho/scratch/marielj/hillslope-soiltest-pfttest/bld/cesm.exe   >> cesm.log.$LID 2>&1 ' failed with error '' from dir '/glade/derecho/scratch/marielj/hillslope-soiltest-pfttest/run'
 ---------------------------------------------------
2024-04-16 18:01:24: case.run error 
ERROR: RUN FAIL: Command 'mpiexec  --label  --line-buffer  -n 1 /glade/derecho/scratch/marielj/hillslope-soiltest-pfttest/bld/cesm.exe   >> cesm.log.$LID 2>&1 ' failed
See log file for details: /glade/derecho/scratch/marielj/hillslope-soiltest-pfttest/run/cesm.log.4148810.desched1.240416-180028
 ---------------------------------------------------
2024-04-16 18:04:45: case.submit starting 4149000.desched1
 ---------------------------------------------------
2024-04-16 18:04:45: case.submit success 4149000.desched1
 ---------------------------------------------------
2024-04-16 18:05:13: case.run starting 4148998.desched1
 ---------------------------------------------------
2024-04-16 18:05:38: model execution starting 4148998.desched1
 ---------------------------------------------------
2024-04-16 18:05:59: model execution error 
ERROR: Command: 'mpiexec  --label  --line-buffer  -n 1 /glade/derecho/scratch/marielj/hillslope-soiltest-pfttest/bld/cesm.exe   >> cesm.log.$LID 2>&1 ' failed with error '' from dir '/glade/derecho/scratch/marielj/hillslope-soiltest-pfttest/run'
 ---------------------------------------------------
2024-04-16 18:05:59: case.run error 
ERROR: RUN FAIL: Command 'mpiexec  --label  --line-buffer  -n 1 /glade/derecho/scratch/marielj/hillslope-soiltest-pfttest/bld/cesm.exe   >> cesm.log.$LID 2>&1 ' failed
See log file for details: /glade/derecho/scratch/marielj/hillslope-soiltest-pfttest/run/cesm.log.4148998.desched1.240416-180513
 ---------------------------------------------------
2024-04-16 18:48:33: build.clean starting 
 ---------------------------------------------------
2024-04-16 18:48:35: build.clean success 
 ---------------------------------------------------
2024-04-16 18:48:46: case.build starting 
 ---------------------------------------------------
2024-04-16 18:55:39: case.build success 
 ---------------------------------------------------
2024-04-16 18:56:06: case.submit starting 4149319.desched1
 ---------------------------------------------------
2024-04-16 18:56:06: case.submit success 4149319.desched1
 ---------------------------------------------------
2024-04-16 18:56:18: case.run starting 4149317.desched1
 ---------------------------------------------------
2024-04-16 18:56:29: model execution starting 4149317.desched1
 ---------------------------------------------------
2024-04-16 18:56:46: model execution error 
ERROR: Command: 'mpiexec  --label  --line-buffer  -n 1 /glade/derecho/scratch/marielj/hillslope-soiltest-pfttest/bld/cesm.exe   >> cesm.log.$LID 2>&1 ' failed with error '' from dir '/glade/derecho/scratch/marielj/hillslope-soiltest-pfttest/run'
 ---------------------------------------------------
2024-04-16 18:56:46: case.run error 
ERROR: RUN FAIL: Command 'mpiexec  --label  --line-buffer  -n 1 /glade/derecho/scratch/marielj/hillslope-soiltest-pfttest/bld/cesm.exe   >> cesm.log.$LID 2>&1 ' failed
See log file for details: /glade/derecho/scratch/marielj/hillslope-soiltest-pfttest/run/cesm.log.4149317.desched1.240416-185618
 ---------------------------------------------------
2024-04-16 19:12:55: build.clean starting 
 ---------------------------------------------------
2024-04-16 19:12:58: build.clean success 
 ---------------------------------------------------
2024-04-16 19:13:01: case.build starting 
 ---------------------------------------------------
2024-04-16 19:18:47: case.build success 
 ---------------------------------------------------
2024-04-16 19:19:07: case.submit starting 4149446.desched1
 ---------------------------------------------------
2024-04-16 19:19:07: case.submit success 4149446.desched1
 ---------------------------------------------------
2024-04-16 19:19:22: case.run starting 4149445.desched1
 ---------------------------------------------------
2024-04-16 19:19:43: model execution starting 4149445.desched1
 ---------------------------------------------------
2024-04-16 19:20:01: model execution error 
ERROR: Command: 'mpiexec  --label  --line-buffer  -n 1 /glade/derecho/scratch/marielj/hillslope-soiltest-pfttest/bld/cesm.exe   >> cesm.log.$LID 2>&1 ' failed with error '' from dir '/glade/derecho/scratch/marielj/hillslope-soiltest-pfttest/run'
 ---------------------------------------------------
2024-04-16 19:20:01: case.run error 
ERROR: RUN FAIL: Command 'mpiexec  --label  --line-buffer  -n 1 /glade/derecho/scratch/marielj/hillslope-soiltest-pfttest/bld/cesm.exe   >> cesm.log.$LID 2>&1 ' failed
See log file for details: /glade/derecho/scratch/marielj/hillslope-soiltest-pfttest/run/cesm.log.4149445.desched1.240416-191922
 ---------------------------------------------------
2024-04-16 19:24:37: build.clean starting 
 ---------------------------------------------------
2024-04-16 19:24:39: build.clean success 
 ---------------------------------------------------
2024-04-16 19:24:42: case.build starting 
 ---------------------------------------------------
2024-04-16 19:30:31: case.build success 
 ---------------------------------------------------
2024-04-16 19:30:47: case.submit starting 4149515.desched1
 ---------------------------------------------------
2024-04-16 19:30:47: case.submit success 4149515.desched1
 ---------------------------------------------------
2024-04-16 19:30:56: case.run starting 4149514.desched1
 ---------------------------------------------------
2024-04-16 19:31:01: model execution starting 4149514.desched1
 ---------------------------------------------------
2024-04-16 19:38:37: model execution success 4149514.desched1
 ---------------------------------------------------
2024-04-16 19:38:37: case.run success 4149514.desched1
 ---------------------------------------------------
2024-04-16 19:38:50: st_archive starting 4149515.desched1
 ---------------------------------------------------
2024-04-16 19:38:51: st_archive success 4149515.desched1
 ---------------------------------------------------
2024-04-17 08:58:50: build.clean starting 
 ---------------------------------------------------
2024-04-17 08:58:53: build.clean success 
 ---------------------------------------------------
2024-04-17 08:59:36: case.build starting 
 ---------------------------------------------------
2024-04-17 09:05:50: case.build success 
 ---------------------------------------------------
2024-04-17 09:09:31: case.submit starting 4156056.desched1
 ---------------------------------------------------
2024-04-17 09:09:31: case.submit success 4156056.desched1
 ---------------------------------------------------
2024-04-17 09:09:48: case.run starting 4156055.desched1
 ---------------------------------------------------
2024-04-17 09:09:52: model execution starting 4156055.desched1
 ---------------------------------------------------
2024-04-17 09:17:11: model execution success 4156055.desched1
 ---------------------------------------------------
2024-04-17 09:17:11: case.run success 4156055.desched1
 ---------------------------------------------------
2024-04-17 09:17:28: st_archive starting 4156056.desched1
 ---------------------------------------------------
2024-04-17 09:17:30: st_archive success 4156056.desched1
 ---------------------------------------------------
2024-04-17 09:20:17: build.clean starting 
 ---------------------------------------------------
2024-04-17 09:20:20: build.clean success 
 ---------------------------------------------------
2024-04-17 09:21:15: case.build starting 
 ---------------------------------------------------
2024-04-17 09:26:06: case.build error 
ERROR: BUILD FAIL: clm.buildlib failed, cat /glade/derecho/scratch/marielj/hillslope-soiltest-pfttest/bld/lnd.bldlog.240417-092115
 ---------------------------------------------------
2024-04-17 09:29:00: build.clean starting 
 ---------------------------------------------------
2024-04-17 09:29:03: build.clean success 
 ---------------------------------------------------
2024-04-17 09:29:15: case.build starting 
 ---------------------------------------------------
2024-04-17 09:35:06: case.build success 
 ---------------------------------------------------
2024-04-17 09:35:21: case.submit starting 4156876.desched1
 ---------------------------------------------------
2024-04-17 09:35:21: case.submit success 4156876.desched1
 ---------------------------------------------------
2024-04-17 09:37:13: case.run starting 4156875.desched1
 ---------------------------------------------------
2024-04-17 09:37:23: model execution starting 4156875.desched1
 ---------------------------------------------------
2024-04-17 09:44:54: model execution success 4156875.desched1
 ---------------------------------------------------
2024-04-17 09:44:54: case.run success 4156875.desched1
 ---------------------------------------------------
2024-04-17 11:39:19: xmlchange success <command> ./xmlchange STOP_N=21  </command>
 ---------------------------------------------------
2024-04-17 11:40:24: build.clean starting 
 ---------------------------------------------------
2024-04-17 11:40:27: build.clean success 
 ---------------------------------------------------
2024-04-17 11:40:31: case.build starting 
 ---------------------------------------------------
2024-04-17 11:46:26: case.build success 
 ---------------------------------------------------
2024-04-17 11:46:41: case.submit starting 4158672.desched1
 ---------------------------------------------------
2024-04-17 11:46:41: case.submit success 4158672.desched1
 ---------------------------------------------------
2024-04-17 11:46:50: case.run starting 4158671.desched1
 ---------------------------------------------------
2024-04-17 11:46:53: model execution starting 4158671.desched1
 ---------------------------------------------------
2024-04-17 12:08:48: model execution success 4158671.desched1
 ---------------------------------------------------
2024-04-17 12:08:48: case.run success 4158671.desched1
 ---------------------------------------------------
2024-04-17 12:10:03: st_archive starting 4158672.desched1
 ---------------------------------------------------
2024-04-17 12:10:08: st_archive success 4158672.desched1
 ---------------------------------------------------
2024-04-18 09:59:08: build.clean starting 
 ---------------------------------------------------
2024-04-18 09:59:11: build.clean success 
 ---------------------------------------------------
2024-04-18 10:00:51: case.build starting 
 ---------------------------------------------------
2024-04-18 10:06:44: case.build success 
 ---------------------------------------------------
2024-04-18 10:07:19: case.build starting 
 ---------------------------------------------------
2024-04-18 10:07:35: case.submit starting 4169666.desched1
 ---------------------------------------------------
2024-04-18 10:07:35: case.submit success 4169666.desched1
 ---------------------------------------------------
2024-04-18 10:37:06: case.submit starting 4169921.desched1
 ---------------------------------------------------
2024-04-18 10:37:06: case.submit success 4169921.desched1
 ---------------------------------------------------
2024-04-18 10:48:32: build.clean starting 
 ---------------------------------------------------
2024-04-18 10:48:35: build.clean success 
 ---------------------------------------------------
2024-04-18 10:48:44: build.clean starting 
 ---------------------------------------------------
2024-04-18 10:48:46: build.clean success 
 ---------------------------------------------------
2024-04-18 10:48:50: case.build starting 
 ---------------------------------------------------
2024-04-18 10:54:38: case.build success 
 ---------------------------------------------------
2024-04-18 10:55:00: case.submit starting 4170143.desched1
 ---------------------------------------------------
2024-04-18 10:55:00: case.submit success 4170143.desched1
 ---------------------------------------------------
2024-04-18 12:52:56: case.submit starting 4170735.desched1
 ---------------------------------------------------
2024-04-18 12:52:56: case.submit success 4170735.desched1
 ---------------------------------------------------
2024-04-18 13:09:59: build.clean starting 
 ---------------------------------------------------
2024-04-18 13:10:02: build.clean success 
 ---------------------------------------------------
2024-04-18 13:10:05: case.build starting 
 ---------------------------------------------------
2024-04-18 13:14:40: case.build error 
ERROR: BUILD FAIL: clm.buildlib failed, cat /glade/derecho/scratch/marielj/hillslope-soiltest-pfttest/bld/lnd.bldlog.240418-131006
 ---------------------------------------------------
2024-04-18 13:20:19: build.clean starting 
 ---------------------------------------------------
2024-04-18 13:20:21: build.clean success 
 ---------------------------------------------------
2024-04-18 13:20:27: case.build starting 
 ---------------------------------------------------
2024-04-18 13:26:14: case.build success 
 ---------------------------------------------------
2024-04-18 13:26:39: case.submit starting 4170961.desched1
 ---------------------------------------------------
2024-04-18 13:26:39: case.submit success 4170961.desched1
 ---------------------------------------------------
2024-04-18 16:10:12: case.submit starting 4171803.desched1
 ---------------------------------------------------
2024-04-18 16:10:12: case.submit success 4171803.desched1
 ---------------------------------------------------
2024-04-18 16:47:17: case.run starting 4171802.desched1
 ---------------------------------------------------
2024-04-18 16:47:21: model execution starting 4171802.desched1
 ---------------------------------------------------
2024-04-18 17:09:45: model execution success 4171802.desched1
 ---------------------------------------------------
2024-04-18 17:09:45: case.run success 4171802.desched1
 ---------------------------------------------------
2024-04-18 17:09:57: st_archive starting 4171803.desched1
 ---------------------------------------------------
2024-04-18 17:09:59: st_archive success 4171803.desched1
 ---------------------------------------------------
