2024-04-16 17:36:02: case.setup starting 4147667.desched1
 ---------------------------------------------------
2024-04-16 17:36:04: case.setup success 4147667.desched1
 ---------------------------------------------------
2024-04-16 17:52:36: build.clean starting 
 ---------------------------------------------------
2024-04-16 17:52:37: build.clean success 
 ---------------------------------------------------
2024-04-16 17:53:35: case.build starting 
 ---------------------------------------------------
2024-04-16 17:59:37: case.build success 
 ---------------------------------------------------
2024-04-16 17:59:59: case.submit starting 4148811.desched1
 ---------------------------------------------------
2024-04-16 17:59:59: case.submit success 4148811.desched1
 ---------------------------------------------------
2024-04-16 18:00:28: case.run starting 4148810.desched1
 ---------------------------------------------------
2024-04-16 18:01:02: model execution starting 4148810.desched1
 ---------------------------------------------------
2024-04-16 18:01:24: model execution error 
ERROR: Command: 'mpiexec  --label  --line-buffer  -n 1 /glade/derecho/scratch/marielj/hillslope-soiltest-pfttest/bld/cesm.exe   >> cesm.log.$LID 2>&1 ' failed with error '' from dir '/glade/derecho/scratch/marielj/hillslope-soiltest-pfttest/run'
 ---------------------------------------------------
2024-04-16 18:01:24: case.run error 
ERROR: RUN FAIL: Command 'mpiexec  --label  --line-buffer  -n 1 /glade/derecho/scratch/marielj/hillslope-soiltest-pfttest/bld/cesm.exe   >> cesm.log.$LID 2>&1 ' failed
See log file for details: /glade/derecho/scratch/marielj/hillslope-soiltest-pfttest/run/cesm.log.4148810.desched1.240416-180028
 ---------------------------------------------------
2024-04-16 18:04:45: case.submit starting 4149000.desched1
 ---------------------------------------------------
2024-04-16 18:04:45: case.submit success 4149000.desched1
 ---------------------------------------------------
2024-04-16 18:05:13: case.run starting 4148998.desched1
 ---------------------------------------------------
2024-04-16 18:05:38: model execution starting 4148998.desched1
 ---------------------------------------------------
2024-04-16 18:05:59: model execution error 
ERROR: Command: 'mpiexec  --label  --line-buffer  -n 1 /glade/derecho/scratch/marielj/hillslope-soiltest-pfttest/bld/cesm.exe   >> cesm.log.$LID 2>&1 ' failed with error '' from dir '/glade/derecho/scratch/marielj/hillslope-soiltest-pfttest/run'
 ---------------------------------------------------
2024-04-16 18:05:59: case.run error 
ERROR: RUN FAIL: Command 'mpiexec  --label  --line-buffer  -n 1 /glade/derecho/scratch/marielj/hillslope-soiltest-pfttest/bld/cesm.exe   >> cesm.log.$LID 2>&1 ' failed
See log file for details: /glade/derecho/scratch/marielj/hillslope-soiltest-pfttest/run/cesm.log.4148998.desched1.240416-180513
 ---------------------------------------------------
2024-04-16 18:48:33: build.clean starting 
 ---------------------------------------------------
2024-04-16 18:48:35: build.clean success 
 ---------------------------------------------------
2024-04-16 18:48:46: case.build starting 
 ---------------------------------------------------
2024-04-16 18:55:39: case.build success 
 ---------------------------------------------------
2024-04-16 18:56:06: case.submit starting 4149319.desched1
 ---------------------------------------------------
2024-04-16 18:56:06: case.submit success 4149319.desched1
 ---------------------------------------------------
2024-04-16 18:56:18: case.run starting 4149317.desched1
 ---------------------------------------------------
2024-04-16 18:56:29: model execution starting 4149317.desched1
 ---------------------------------------------------
2024-04-16 18:56:46: model execution error 
ERROR: Command: 'mpiexec  --label  --line-buffer  -n 1 /glade/derecho/scratch/marielj/hillslope-soiltest-pfttest/bld/cesm.exe   >> cesm.log.$LID 2>&1 ' failed with error '' from dir '/glade/derecho/scratch/marielj/hillslope-soiltest-pfttest/run'
 ---------------------------------------------------
2024-04-16 18:56:46: case.run error 
ERROR: RUN FAIL: Command 'mpiexec  --label  --line-buffer  -n 1 /glade/derecho/scratch/marielj/hillslope-soiltest-pfttest/bld/cesm.exe   >> cesm.log.$LID 2>&1 ' failed
See log file for details: /glade/derecho/scratch/marielj/hillslope-soiltest-pfttest/run/cesm.log.4149317.desched1.240416-185618
 ---------------------------------------------------
2024-04-16 19:12:55: build.clean starting 
 ---------------------------------------------------
2024-04-16 19:12:58: build.clean success 
 ---------------------------------------------------
2024-04-16 19:13:01: case.build starting 
 ---------------------------------------------------
2024-04-16 19:18:47: case.build success 
 ---------------------------------------------------
2024-04-16 19:19:07: case.submit starting 4149446.desched1
 ---------------------------------------------------
2024-04-16 19:19:07: case.submit success 4149446.desched1
 ---------------------------------------------------
2024-04-16 19:19:22: case.run starting 4149445.desched1
 ---------------------------------------------------
2024-04-16 19:19:43: model execution starting 4149445.desched1
 ---------------------------------------------------
2024-04-16 19:20:01: model execution error 
ERROR: Command: 'mpiexec  --label  --line-buffer  -n 1 /glade/derecho/scratch/marielj/hillslope-soiltest-pfttest/bld/cesm.exe   >> cesm.log.$LID 2>&1 ' failed with error '' from dir '/glade/derecho/scratch/marielj/hillslope-soiltest-pfttest/run'
 ---------------------------------------------------
2024-04-16 19:20:01: case.run error 
ERROR: RUN FAIL: Command 'mpiexec  --label  --line-buffer  -n 1 /glade/derecho/scratch/marielj/hillslope-soiltest-pfttest/bld/cesm.exe   >> cesm.log.$LID 2>&1 ' failed
See log file for details: /glade/derecho/scratch/marielj/hillslope-soiltest-pfttest/run/cesm.log.4149445.desched1.240416-191922
 ---------------------------------------------------
2024-04-16 19:24:37: build.clean starting 
 ---------------------------------------------------
2024-04-16 19:24:39: build.clean success 
 ---------------------------------------------------
2024-04-16 19:24:42: case.build starting 
 ---------------------------------------------------
2024-04-16 19:30:31: case.build success 
 ---------------------------------------------------
2024-04-16 19:30:47: case.submit starting 4149515.desched1
 ---------------------------------------------------
2024-04-16 19:30:47: case.submit success 4149515.desched1
 ---------------------------------------------------
2024-04-16 19:30:56: case.run starting 4149514.desched1
 ---------------------------------------------------
2024-04-16 19:31:01: model execution starting 4149514.desched1
 ---------------------------------------------------
2024-04-16 19:38:37: model execution success 4149514.desched1
 ---------------------------------------------------
2024-04-16 19:38:37: case.run success 4149514.desched1
 ---------------------------------------------------
2024-04-16 19:38:50: st_archive starting 4149515.desched1
 ---------------------------------------------------
2024-04-16 19:38:51: st_archive success 4149515.desched1
 ---------------------------------------------------
2024-04-17 08:58:50: build.clean starting 
 ---------------------------------------------------
2024-04-17 08:58:53: build.clean success 
 ---------------------------------------------------
2024-04-17 08:59:36: case.build starting 
 ---------------------------------------------------
2024-04-17 09:05:50: case.build success 
 ---------------------------------------------------
2024-04-17 09:09:31: case.submit starting 4156056.desched1
 ---------------------------------------------------
2024-04-17 09:09:31: case.submit success 4156056.desched1
 ---------------------------------------------------
2024-04-17 09:09:48: case.run starting 4156055.desched1
 ---------------------------------------------------
2024-04-17 09:09:52: model execution starting 4156055.desched1
 ---------------------------------------------------
2024-04-17 09:17:11: model execution success 4156055.desched1
 ---------------------------------------------------
2024-04-17 09:17:11: case.run success 4156055.desched1
 ---------------------------------------------------
2024-04-17 09:17:28: st_archive starting 4156056.desched1
 ---------------------------------------------------
2024-04-17 09:17:30: st_archive success 4156056.desched1
 ---------------------------------------------------
2024-04-17 09:20:17: build.clean starting 
 ---------------------------------------------------
2024-04-17 09:20:20: build.clean success 
 ---------------------------------------------------
2024-04-17 09:21:15: case.build starting 
 ---------------------------------------------------
2024-04-17 09:26:06: case.build error 
ERROR: BUILD FAIL: clm.buildlib failed, cat /glade/derecho/scratch/marielj/hillslope-soiltest-pfttest/bld/lnd.bldlog.240417-092115
 ---------------------------------------------------
2024-04-17 09:29:00: build.clean starting 
 ---------------------------------------------------
2024-04-17 09:29:03: build.clean success 
 ---------------------------------------------------
2024-04-17 09:29:15: case.build starting 
 ---------------------------------------------------
2024-04-17 09:35:06: case.build success 
 ---------------------------------------------------
2024-04-17 09:35:21: case.submit starting 4156876.desched1
 ---------------------------------------------------
2024-04-17 09:35:21: case.submit success 4156876.desched1
 ---------------------------------------------------
2024-04-17 09:37:13: case.run starting 4156875.desched1
 ---------------------------------------------------
2024-04-17 09:37:23: model execution starting 4156875.desched1
 ---------------------------------------------------
2024-04-17 09:44:54: model execution success 4156875.desched1
 ---------------------------------------------------
2024-04-17 09:44:54: case.run success 4156875.desched1
 ---------------------------------------------------
2024-04-17 11:39:19: xmlchange success <command> ./xmlchange STOP_N=21  </command>
 ---------------------------------------------------
2024-04-17 11:40:24: build.clean starting 
 ---------------------------------------------------
2024-04-17 11:40:27: build.clean success 
 ---------------------------------------------------
2024-04-17 11:40:31: case.build starting 
 ---------------------------------------------------
2024-04-17 11:46:26: case.build success 
 ---------------------------------------------------
2024-04-17 11:46:41: case.submit starting 4158672.desched1
 ---------------------------------------------------
2024-04-17 11:46:41: case.submit success 4158672.desched1
 ---------------------------------------------------
2024-04-17 11:46:50: case.run starting 4158671.desched1
 ---------------------------------------------------
2024-04-17 11:46:53: model execution starting 4158671.desched1
 ---------------------------------------------------
2024-04-17 12:08:48: model execution success 4158671.desched1
 ---------------------------------------------------
2024-04-17 12:08:48: case.run success 4158671.desched1
 ---------------------------------------------------
2024-04-17 12:10:03: st_archive starting 4158672.desched1
 ---------------------------------------------------
2024-04-17 12:10:08: st_archive success 4158672.desched1
 ---------------------------------------------------
2024-04-18 09:59:08: build.clean starting 
 ---------------------------------------------------
2024-04-18 09:59:11: build.clean success 
 ---------------------------------------------------
2024-04-18 10:00:51: case.build starting 
 ---------------------------------------------------
2024-04-18 10:06:44: case.build success 
 ---------------------------------------------------
2024-04-18 10:07:19: case.build starting 
 ---------------------------------------------------
2024-04-18 10:07:35: case.submit starting 4169666.desched1
 ---------------------------------------------------
2024-04-18 10:07:35: case.submit success 4169666.desched1
 ---------------------------------------------------
2024-04-18 10:37:06: case.submit starting 4169921.desched1
 ---------------------------------------------------
2024-04-18 10:37:06: case.submit success 4169921.desched1
 ---------------------------------------------------
2024-04-18 10:48:32: build.clean starting 
 ---------------------------------------------------
2024-04-18 10:48:35: build.clean success 
 ---------------------------------------------------
2024-04-18 10:48:44: build.clean starting 
 ---------------------------------------------------
2024-04-18 10:48:46: build.clean success 
 ---------------------------------------------------
2024-04-18 10:48:50: case.build starting 
 ---------------------------------------------------
2024-04-18 10:54:38: case.build success 
 ---------------------------------------------------
2024-04-18 10:55:00: case.submit starting 4170143.desched1
 ---------------------------------------------------
2024-04-18 10:55:00: case.submit success 4170143.desched1
 ---------------------------------------------------
2024-04-18 12:52:56: case.submit starting 4170735.desched1
 ---------------------------------------------------
2024-04-18 12:52:56: case.submit success 4170735.desched1
 ---------------------------------------------------
2024-04-18 13:09:59: build.clean starting 
 ---------------------------------------------------
2024-04-18 13:10:02: build.clean success 
 ---------------------------------------------------
2024-04-18 13:10:05: case.build starting 
 ---------------------------------------------------
2024-04-18 13:14:40: case.build error 
ERROR: BUILD FAIL: clm.buildlib failed, cat /glade/derecho/scratch/marielj/hillslope-soiltest-pfttest/bld/lnd.bldlog.240418-131006
 ---------------------------------------------------
2024-04-18 13:20:19: build.clean starting 
 ---------------------------------------------------
2024-04-18 13:20:21: build.clean success 
 ---------------------------------------------------
2024-04-18 13:20:27: case.build starting 
 ---------------------------------------------------
2024-04-18 13:26:14: case.build success 
 ---------------------------------------------------
2024-04-18 13:26:39: case.submit starting 4170961.desched1
 ---------------------------------------------------
2024-04-18 13:26:39: case.submit success 4170961.desched1
 ---------------------------------------------------
2024-04-18 16:10:12: case.submit starting 4171803.desched1
 ---------------------------------------------------
2024-04-18 16:10:12: case.submit success 4171803.desched1
 ---------------------------------------------------
2024-04-18 16:47:17: case.run starting 4171802.desched1
 ---------------------------------------------------
2024-04-18 16:47:21: model execution starting 4171802.desched1
 ---------------------------------------------------
2024-04-18 17:09:45: model execution success 4171802.desched1
 ---------------------------------------------------
2024-04-18 17:09:45: case.run success 4171802.desched1
 ---------------------------------------------------
2024-04-18 17:09:57: st_archive starting 4171803.desched1
 ---------------------------------------------------
2024-04-18 17:09:59: st_archive success 4171803.desched1
 ---------------------------------------------------
2024-04-22 10:22:07: build.clean starting 
 ---------------------------------------------------
2024-04-22 10:22:09: build.clean success 
 ---------------------------------------------------
2024-04-22 10:24:14: case.build starting 
 ---------------------------------------------------
2024-04-22 10:28:43: case.build error 
ERROR: BUILD FAIL: clm.buildlib failed, cat /glade/derecho/scratch/marielj/hillslope-soiltest-pfttest/bld/lnd.bldlog.240422-102414
 ---------------------------------------------------
2024-04-22 10:31:44: build.clean starting 
 ---------------------------------------------------
2024-04-22 10:31:46: build.clean success 
 ---------------------------------------------------
2024-04-22 10:31:50: case.build starting 
 ---------------------------------------------------
2024-04-22 10:37:55: case.build success 
 ---------------------------------------------------
2024-04-22 10:40:19: case.submit starting 4220398.desched1
 ---------------------------------------------------
2024-04-22 10:40:19: case.submit success 4220398.desched1
 ---------------------------------------------------
2024-04-22 10:40:32: case.run starting 4220397.desched1
 ---------------------------------------------------
2024-04-22 10:40:34: model execution starting 4220397.desched1
 ---------------------------------------------------
2024-04-22 11:02:15: model execution success 4220397.desched1
 ---------------------------------------------------
2024-04-22 11:02:15: case.run success 4220397.desched1
 ---------------------------------------------------
2024-04-22 11:04:26: st_archive starting 4220398.desched1
 ---------------------------------------------------
2024-04-22 11:04:34: st_archive success 4220398.desched1
 ---------------------------------------------------
2024-04-23 07:58:49: xmlchange success <command> ./xmlchange STOP_N=7  </command>
 ---------------------------------------------------
2024-04-23 07:58:55: build.clean starting 
 ---------------------------------------------------
2024-04-23 07:58:58: build.clean success 
 ---------------------------------------------------
2024-04-23 07:59:02: case.build starting 
 ---------------------------------------------------
2024-04-23 08:05:38: case.build success 
 ---------------------------------------------------
2024-04-23 08:11:17: case.submit starting 4232539.desched1
 ---------------------------------------------------
2024-04-23 08:11:17: case.submit success 4232539.desched1
 ---------------------------------------------------
2024-04-23 08:21:10: case.submit starting 4232725.desched1
 ---------------------------------------------------
2024-04-23 08:21:10: case.submit success 4232725.desched1
 ---------------------------------------------------
2024-04-23 09:01:55: case.run starting 4232724.desched1
 ---------------------------------------------------
2024-04-23 09:01:58: model execution starting 4232724.desched1
 ---------------------------------------------------
2024-04-23 09:09:24: model execution success 4232724.desched1
 ---------------------------------------------------
2024-04-23 09:09:24: case.run success 4232724.desched1
 ---------------------------------------------------
2024-04-23 09:09:35: st_archive starting 4232725.desched1
 ---------------------------------------------------
2024-04-23 09:09:37: st_archive success 4232725.desched1
 ---------------------------------------------------
2024-04-23 11:22:16: build.clean starting 
 ---------------------------------------------------
2024-04-23 11:22:19: build.clean success 
 ---------------------------------------------------
2024-04-23 11:22:22: case.build starting 
 ---------------------------------------------------
2024-04-23 11:28:53: case.build success 
 ---------------------------------------------------
2024-04-23 11:30:18: case.submit starting 4234926.desched1
 ---------------------------------------------------
2024-04-23 11:30:18: case.submit success 4234926.desched1
 ---------------------------------------------------
2024-04-23 11:30:27: case.run starting 4234925.desched1
 ---------------------------------------------------
2024-04-23 11:30:31: model execution starting 4234925.desched1
 ---------------------------------------------------
2024-04-23 11:37:57: model execution success 4234925.desched1
 ---------------------------------------------------
2024-04-23 11:37:57: case.run success 4234925.desched1
 ---------------------------------------------------
2024-04-23 11:38:11: st_archive starting 4234926.desched1
 ---------------------------------------------------
2024-04-23 11:38:15: st_archive success 4234926.desched1
 ---------------------------------------------------
2024-04-23 11:52:35: case.submit starting 4235757.desched1
 ---------------------------------------------------
2024-04-23 11:52:35: case.submit success 4235757.desched1
 ---------------------------------------------------
2024-04-23 15:19:40: case.run starting 4235756.desched1
 ---------------------------------------------------
2024-04-23 15:19:58: model execution starting 4235756.desched1
 ---------------------------------------------------
2024-04-23 15:27:35: model execution success 4235756.desched1
 ---------------------------------------------------
2024-04-23 15:27:35: case.run success 4235756.desched1
 ---------------------------------------------------
2024-04-23 15:28:24: st_archive starting 4235757.desched1
 ---------------------------------------------------
2024-04-23 15:28:27: st_archive success 4235757.desched1
 ---------------------------------------------------
2024-04-23 17:24:22: build.clean starting 
 ---------------------------------------------------
2024-04-23 17:24:25: build.clean success 
 ---------------------------------------------------
2024-04-23 17:24:30: case.build starting 
 ---------------------------------------------------
2024-04-23 17:31:24: case.build success 
 ---------------------------------------------------
2024-04-23 17:31:57: case.submit starting 4239443.desched1
 ---------------------------------------------------
2024-04-23 17:31:57: case.submit success 4239443.desched1
 ---------------------------------------------------
2024-04-23 17:36:40: case.run starting 4239442.desched1
 ---------------------------------------------------
2024-04-23 17:36:47: model execution starting 4239442.desched1
 ---------------------------------------------------
2024-04-23 17:44:12: model execution success 4239442.desched1
 ---------------------------------------------------
2024-04-23 17:44:12: case.run success 4239442.desched1
 ---------------------------------------------------
2024-04-23 17:44:37: st_archive starting 4239443.desched1
 ---------------------------------------------------
2024-04-23 17:44:40: st_archive success 4239443.desched1
 ---------------------------------------------------
2024-04-23 17:54:51: build.clean starting 
 ---------------------------------------------------
2024-04-23 17:54:53: build.clean success 
 ---------------------------------------------------
2024-04-23 18:14:30: xmlchange success <command> ./xmlchange STOP_N=14  </command>
 ---------------------------------------------------
2024-04-23 18:15:16: xmlchange success <command> ./xmlchange RUN_STARTDATE=2004-01-01  </command>
 ---------------------------------------------------
2024-04-23 18:15:36: build.clean starting 
 ---------------------------------------------------
2024-04-23 18:15:37: build.clean success 
 ---------------------------------------------------
2024-04-23 18:15:46: case.build starting 
 ---------------------------------------------------
2024-04-23 18:21:56: case.build success 
 ---------------------------------------------------
2024-04-23 18:22:12: case.submit starting 4240190.desched1
 ---------------------------------------------------
2024-04-23 18:22:12: case.submit success 4240190.desched1
 ---------------------------------------------------
2024-04-23 18:22:47: case.run starting 4240189.desched1
 ---------------------------------------------------
2024-04-23 18:23:07: model execution starting 4240189.desched1
 ---------------------------------------------------
2024-04-23 18:38:08: model execution success 4240189.desched1
 ---------------------------------------------------
2024-04-23 18:38:08: case.run success 4240189.desched1
 ---------------------------------------------------
2024-04-23 18:38:32: st_archive starting 4240190.desched1
 ---------------------------------------------------
2024-04-23 18:38:36: st_archive success 4240190.desched1
 ---------------------------------------------------
2024-04-23 18:44:15: case.submit starting 4240295.desched1
 ---------------------------------------------------
2024-04-23 18:44:15: case.submit success 4240295.desched1
 ---------------------------------------------------
2024-04-23 18:45:10: case.run starting 4240294.desched1
 ---------------------------------------------------
2024-04-23 18:45:19: model execution starting 4240294.desched1
 ---------------------------------------------------
2024-04-23 19:00:25: model execution success 4240294.desched1
 ---------------------------------------------------
2024-04-23 19:00:25: case.run success 4240294.desched1
 ---------------------------------------------------
2024-04-23 19:01:03: st_archive starting 4240295.desched1
 ---------------------------------------------------
2024-04-23 19:01:09: st_archive success 4240295.desched1
 ---------------------------------------------------
2024-04-23 19:01:19: case.submit starting 4240464.desched1
 ---------------------------------------------------
2024-04-23 19:01:19: case.submit success 4240464.desched1
 ---------------------------------------------------
2024-04-23 19:01:32: case.run starting 4240463.desched1
 ---------------------------------------------------
2024-04-23 19:01:39: model execution starting 4240463.desched1
 ---------------------------------------------------
2024-04-23 19:16:39: model execution success 4240463.desched1
 ---------------------------------------------------
2024-04-23 19:16:39: case.run success 4240463.desched1
 ---------------------------------------------------
2024-04-23 19:17:01: st_archive starting 4240464.desched1
 ---------------------------------------------------
2024-04-23 19:17:06: st_archive success 4240464.desched1
 ---------------------------------------------------
2024-04-23 19:17:16: case.submit starting 4240625.desched1
 ---------------------------------------------------
2024-04-23 19:17:16: case.submit success 4240625.desched1
 ---------------------------------------------------
2024-04-23 19:18:13: case.run starting 4240624.desched1
 ---------------------------------------------------
2024-04-23 19:18:24: model execution starting 4240624.desched1
 ---------------------------------------------------
2024-04-23 19:33:27: model execution success 4240624.desched1
 ---------------------------------------------------
2024-04-23 19:33:27: case.run success 4240624.desched1
 ---------------------------------------------------
2024-04-23 19:33:59: st_archive starting 4240625.desched1
 ---------------------------------------------------
2024-04-23 19:34:02: st_archive success 4240625.desched1
 ---------------------------------------------------
2024-04-23 19:34:09: case.submit starting 4240804.desched1
 ---------------------------------------------------
2024-04-23 19:34:11: case.submit success 4240804.desched1
 ---------------------------------------------------
2024-04-23 19:34:25: case.run starting 4240803.desched1
 ---------------------------------------------------
2024-04-23 19:34:31: model execution starting 4240803.desched1
 ---------------------------------------------------
2024-04-23 19:49:31: model execution success 4240803.desched1
 ---------------------------------------------------
2024-04-23 19:49:31: case.run success 4240803.desched1
 ---------------------------------------------------
2024-04-23 19:50:11: st_archive starting 4240804.desched1
 ---------------------------------------------------
2024-04-23 19:50:15: st_archive success 4240804.desched1
 ---------------------------------------------------
2024-04-23 19:50:26: case.submit starting 4241031.desched1
 ---------------------------------------------------
2024-04-23 19:50:26: case.submit success 4241031.desched1
 ---------------------------------------------------
2024-04-23 19:51:05: case.run starting 4241030.desched1
 ---------------------------------------------------
2024-04-23 19:51:12: model execution starting 4241030.desched1
 ---------------------------------------------------
2024-04-23 20:06:12: model execution success 4241030.desched1
 ---------------------------------------------------
2024-04-23 20:06:15: case.run success 4241030.desched1
 ---------------------------------------------------
2024-04-23 20:06:49: st_archive starting 4241031.desched1
 ---------------------------------------------------
2024-04-23 20:06:52: st_archive success 4241031.desched1
 ---------------------------------------------------
2024-04-23 20:07:07: case.submit starting 4241261.desched1
 ---------------------------------------------------
2024-04-23 20:07:07: case.submit success 4241261.desched1
 ---------------------------------------------------
2024-04-23 20:12:54: case.run starting 4241259.desched1
 ---------------------------------------------------
2024-04-23 20:13:00: model execution starting 4241259.desched1
 ---------------------------------------------------
2024-04-23 20:27:54: model execution success 4241259.desched1
 ---------------------------------------------------
2024-04-23 20:27:55: case.run success 4241259.desched1
 ---------------------------------------------------
2024-04-23 20:28:20: st_archive starting 4241261.desched1
 ---------------------------------------------------
2024-04-23 20:28:24: st_archive success 4241261.desched1
 ---------------------------------------------------
2024-04-24 09:17:55: case.submit starting 4245326.desched1
 ---------------------------------------------------
2024-04-24 09:17:55: case.submit success 4245326.desched1
 ---------------------------------------------------
2024-04-24 09:18:05: case.run starting 4245325.desched1
 ---------------------------------------------------
2024-04-24 09:18:09: model execution starting 4245325.desched1
 ---------------------------------------------------
2024-04-24 09:33:06: model execution success 4245325.desched1