2024-04-11 16:30:59: case.setup starting 4087475.desched1
 ---------------------------------------------------
2024-04-11 16:31:01: case.setup success 4087475.desched1
 ---------------------------------------------------
2024-04-11 16:35:27: case.build starting 
 ---------------------------------------------------
2024-04-11 16:41:44: case.build success 
 ---------------------------------------------------
2024-04-11 16:43:11: case.submit starting 4089905.desched1
 ---------------------------------------------------
2024-04-11 16:43:11: case.submit success 4089905.desched1
 ---------------------------------------------------
2024-04-11 16:43:39: case.run starting 4089904.desched1
 ---------------------------------------------------
2024-04-11 16:43:42: model execution starting 4089904.desched1
 ---------------------------------------------------
2024-04-11 16:43:48: model execution error 
ERROR: Command: 'mpiexec  --label  --line-buffer  -n 1 /glade/derecho/scratch/marielj/hillslope-bayes-opt-pfts/bld/cesm.exe   >> cesm.log.$LID 2>&1 ' failed with error '' from dir '/glade/derecho/scratch/marielj/hillslope-bayes-opt-pfts/run'
 ---------------------------------------------------
2024-04-11 16:43:48: case.run error 
ERROR: RUN FAIL: Command 'mpiexec  --label  --line-buffer  -n 1 /glade/derecho/scratch/marielj/hillslope-bayes-opt-pfts/bld/cesm.exe   >> cesm.log.$LID 2>&1 ' failed
See log file for details: /glade/derecho/scratch/marielj/hillslope-bayes-opt-pfts/run/cesm.log.4089904.desched1.240411-164339
 ---------------------------------------------------
2024-04-11 19:01:54: build.clean starting 
 ---------------------------------------------------
2024-04-11 19:01:59: build.clean success 
 ---------------------------------------------------
2024-04-11 19:02:03: case.build starting 
 ---------------------------------------------------
2024-04-11 19:08:21: case.build success 
 ---------------------------------------------------
2024-04-11 19:10:42: case.submit starting 4091378.desched1
 ---------------------------------------------------
2024-04-11 19:10:42: case.submit success 4091378.desched1
 ---------------------------------------------------
2024-04-11 19:10:55: case.run starting 4091377.desched1
 ---------------------------------------------------
2024-04-11 19:10:57: model execution starting 4091377.desched1
 ---------------------------------------------------
2024-04-11 19:17:58: model execution success 4091377.desched1
 ---------------------------------------------------
2024-04-11 19:17:58: case.run success 4091377.desched1
 ---------------------------------------------------
2024-04-11 19:18:42: st_archive starting 4091378.desched1
 ---------------------------------------------------
2024-04-11 19:18:43: st_archive success 4091378.desched1
 ---------------------------------------------------
2024-04-11 19:18:51: case.submit starting 4091401.desched1
 ---------------------------------------------------
2024-04-11 19:18:51: case.submit success 4091401.desched1
 ---------------------------------------------------
2024-04-11 19:19:01: case.run starting 4091400.desched1
 ---------------------------------------------------
2024-04-11 19:19:04: model execution starting 4091400.desched1
 ---------------------------------------------------
2024-04-11 19:26:07: model execution success 4091400.desched1
 ---------------------------------------------------
2024-04-11 19:26:07: case.run success 4091400.desched1
 ---------------------------------------------------
2024-04-11 19:26:26: st_archive starting 4091401.desched1
 ---------------------------------------------------
2024-04-11 19:26:28: st_archive success 4091401.desched1
 ---------------------------------------------------
2024-04-11 19:26:37: case.submit starting 4091482.desched1
 ---------------------------------------------------
2024-04-11 19:26:37: case.submit success 4091482.desched1
 ---------------------------------------------------
2024-04-11 19:26:44: case.run starting 4091481.desched1
 ---------------------------------------------------
2024-04-11 19:26:46: model execution starting 4091481.desched1
 ---------------------------------------------------
2024-04-11 19:33:53: model execution success 4091481.desched1
 ---------------------------------------------------
2024-04-11 19:33:53: case.run success 4091481.desched1
 ---------------------------------------------------
2024-04-11 19:34:16: st_archive starting 4091482.desched1
 ---------------------------------------------------
2024-04-11 19:34:18: st_archive success 4091482.desched1
 ---------------------------------------------------
2024-04-11 19:34:28: case.submit starting 4091523.desched1
 ---------------------------------------------------
2024-04-11 19:34:28: case.submit success 4091523.desched1
 ---------------------------------------------------
2024-04-11 19:34:43: case.run starting 4091522.desched1
 ---------------------------------------------------
2024-04-11 19:34:46: model execution starting 4091522.desched1
 ---------------------------------------------------
2024-04-11 19:41:48: model execution success 4091522.desched1
 ---------------------------------------------------
2024-04-11 19:41:48: case.run success 4091522.desched1
 ---------------------------------------------------
2024-04-11 19:42:03: st_archive starting 4091523.desched1
 ---------------------------------------------------
2024-04-11 19:42:04: st_archive success 4091523.desched1
 ---------------------------------------------------
2024-04-11 19:42:11: case.submit starting 4091552.desched1
 ---------------------------------------------------
2024-04-11 19:42:11: case.submit success 4091552.desched1
 ---------------------------------------------------
2024-04-11 19:42:17: case.run starting 4091551.desched1
 ---------------------------------------------------
2024-04-11 19:42:20: model execution starting 4091551.desched1
 ---------------------------------------------------
2024-04-11 19:49:22: model execution success 4091551.desched1
 ---------------------------------------------------
2024-04-11 19:49:22: case.run success 4091551.desched1
 ---------------------------------------------------
2024-04-11 19:49:33: st_archive starting 4091552.desched1
 ---------------------------------------------------
2024-04-11 19:49:34: st_archive success 4091552.desched1
 ---------------------------------------------------
2024-04-11 19:49:40: case.submit starting 4091580.desched1
 ---------------------------------------------------
2024-04-11 19:49:40: case.submit success 4091580.desched1
 ---------------------------------------------------
2024-04-11 19:49:48: case.run starting 4091579.desched1
 ---------------------------------------------------
2024-04-11 19:49:50: model execution starting 4091579.desched1
 ---------------------------------------------------
2024-04-11 19:56:46: model execution success 4091579.desched1
 ---------------------------------------------------
2024-04-11 19:56:46: case.run success 4091579.desched1
 ---------------------------------------------------
2024-04-11 19:57:02: st_archive starting 4091580.desched1
 ---------------------------------------------------
2024-04-11 19:57:04: st_archive success 4091580.desched1
 ---------------------------------------------------
2024-04-11 19:57:11: case.submit starting 4091619.desched1
 ---------------------------------------------------
2024-04-11 19:57:11: case.submit success 4091619.desched1
 ---------------------------------------------------
2024-04-11 19:57:17: case.run starting 4091618.desched1
 ---------------------------------------------------
2024-04-11 19:57:20: model execution starting 4091618.desched1
 ---------------------------------------------------
2024-04-11 20:04:22: model execution success 4091618.desched1
 ---------------------------------------------------
2024-04-11 20:04:23: case.run success 4091618.desched1
 ---------------------------------------------------
2024-04-11 20:04:41: st_archive starting 4091619.desched1
 ---------------------------------------------------
2024-04-11 20:04:44: st_archive success 4091619.desched1
 ---------------------------------------------------
2024-04-11 20:04:54: case.submit starting 4091687.desched1
 ---------------------------------------------------
2024-04-11 20:04:54: case.submit success 4091687.desched1
 ---------------------------------------------------
2024-04-11 20:05:01: case.run starting 4091686.desched1
 ---------------------------------------------------
2024-04-11 20:05:04: model execution starting 4091686.desched1
 ---------------------------------------------------
2024-04-11 20:12:01: model execution success 4091686.desched1
 ---------------------------------------------------
2024-04-11 20:12:01: case.run success 4091686.desched1
 ---------------------------------------------------
2024-04-11 20:13:01: st_archive starting 4091687.desched1
 ---------------------------------------------------
2024-04-11 20:13:02: st_archive success 4091687.desched1
 ---------------------------------------------------
2024-04-11 20:13:08: case.submit starting 4091786.desched1
 ---------------------------------------------------
2024-04-11 20:13:08: case.submit success 4091786.desched1
 ---------------------------------------------------
2024-04-11 20:13:19: case.run starting 4091785.desched1
 ---------------------------------------------------
2024-04-11 20:13:21: model execution starting 4091785.desched1
 ---------------------------------------------------
2024-04-11 20:20:24: model execution success 4091785.desched1
 ---------------------------------------------------
2024-04-11 20:20:24: case.run success 4091785.desched1
 ---------------------------------------------------
2024-04-11 20:20:41: st_archive starting 4091786.desched1
 ---------------------------------------------------
2024-04-11 20:20:43: st_archive success 4091786.desched1
 ---------------------------------------------------
2024-04-11 20:20:50: case.submit starting 4091901.desched1
 ---------------------------------------------------
2024-04-11 20:20:50: case.submit success 4091901.desched1
 ---------------------------------------------------
2024-04-11 20:21:00: case.run starting 4091900.desched1
 ---------------------------------------------------
2024-04-11 20:21:06: model execution starting 4091900.desched1
 ---------------------------------------------------
2024-04-11 20:28:05: model execution success 4091900.desched1
 ---------------------------------------------------
2024-04-11 20:28:05: case.run success 4091900.desched1
 ---------------------------------------------------
2024-04-11 20:28:21: st_archive starting 4091901.desched1
 ---------------------------------------------------
2024-04-11 20:28:23: st_archive success 4091901.desched1
 ---------------------------------------------------
2024-04-11 20:28:30: case.submit starting 4092067.desched1
 ---------------------------------------------------
2024-04-11 20:28:30: case.submit success 4092067.desched1
 ---------------------------------------------------
2024-04-11 20:28:36: case.run starting 4092066.desched1
 ---------------------------------------------------
2024-04-11 20:28:39: model execution starting 4092066.desched1
 ---------------------------------------------------
2024-04-11 20:35:37: model execution success 4092066.desched1
 ---------------------------------------------------
2024-04-11 20:35:37: case.run success 4092066.desched1
 ---------------------------------------------------
2024-04-11 20:35:52: st_archive starting 4092067.desched1
 ---------------------------------------------------
2024-04-11 20:35:54: st_archive success 4092067.desched1
 ---------------------------------------------------
2024-04-11 20:36:01: case.submit starting 4092162.desched1
 ---------------------------------------------------
2024-04-11 20:36:01: case.submit success 4092162.desched1
 ---------------------------------------------------
2024-04-11 20:36:08: case.run starting 4092161.desched1
 ---------------------------------------------------
2024-04-11 20:36:14: model execution starting 4092161.desched1
 ---------------------------------------------------
2024-04-11 20:43:11: model execution success 4092161.desched1
 ---------------------------------------------------
2024-04-11 20:43:11: case.run success 4092161.desched1
 ---------------------------------------------------
2024-04-11 20:43:27: st_archive starting 4092162.desched1
 ---------------------------------------------------
2024-04-11 20:43:30: st_archive success 4092162.desched1
 ---------------------------------------------------
2024-04-11 20:43:37: case.submit starting 4092225.desched1
 ---------------------------------------------------
2024-04-11 20:43:37: case.submit success 4092225.desched1
 ---------------------------------------------------
2024-04-11 20:43:46: case.run starting 4092224.desched1
 ---------------------------------------------------
2024-04-11 20:43:49: model execution starting 4092224.desched1
 ---------------------------------------------------
2024-04-11 20:50:49: model execution success 4092224.desched1
 ---------------------------------------------------
2024-04-11 20:50:49: case.run success 4092224.desched1
 ---------------------------------------------------
2024-04-11 20:51:04: st_archive starting 4092225.desched1
 ---------------------------------------------------
2024-04-11 20:51:06: st_archive success 4092225.desched1
 ---------------------------------------------------
2024-04-11 20:51:15: case.submit starting 4092275.desched1
 ---------------------------------------------------
2024-04-11 20:51:15: case.submit success 4092275.desched1
 ---------------------------------------------------
2024-04-11 20:51:31: case.run starting 4092274.desched1
 ---------------------------------------------------
2024-04-11 20:51:34: model execution starting 4092274.desched1
 ---------------------------------------------------
2024-04-11 20:58:36: model execution success 4092274.desched1
 ---------------------------------------------------
2024-04-11 20:58:36: case.run success 4092274.desched1
 ---------------------------------------------------
2024-04-11 20:58:52: st_archive starting 4092275.desched1
 ---------------------------------------------------
2024-04-11 20:58:53: st_archive success 4092275.desched1
 ---------------------------------------------------
2024-04-11 20:59:00: case.submit starting 4092382.desched1
 ---------------------------------------------------
2024-04-11 20:59:00: case.submit success 4092382.desched1
 ---------------------------------------------------
2024-04-11 20:59:13: case.run starting 4092381.desched1
 ---------------------------------------------------
2024-04-11 20:59:16: model execution starting 4092381.desched1
 ---------------------------------------------------
2024-04-11 21:06:15: model execution success 4092381.desched1
 ---------------------------------------------------
2024-04-11 21:06:15: case.run success 4092381.desched1
 ---------------------------------------------------
2024-04-11 21:06:46: st_archive starting 4092382.desched1
 ---------------------------------------------------
2024-04-11 21:06:48: st_archive success 4092382.desched1
 ---------------------------------------------------
2024-04-11 21:06:58: case.submit starting 4092453.desched1
 ---------------------------------------------------
2024-04-11 21:06:58: case.submit success 4092453.desched1
 ---------------------------------------------------
2024-04-11 21:07:17: case.run starting 4092452.desched1
 ---------------------------------------------------
2024-04-11 21:07:20: model execution starting 4092452.desched1
 ---------------------------------------------------
2024-04-11 21:14:22: model execution success 4092452.desched1
 ---------------------------------------------------
2024-04-11 21:14:22: case.run success 4092452.desched1
 ---------------------------------------------------
2024-04-11 21:14:38: st_archive starting 4092453.desched1
 ---------------------------------------------------
2024-04-11 21:14:40: st_archive success 4092453.desched1
 ---------------------------------------------------
2024-04-11 21:14:48: case.submit starting 4092515.desched1
 ---------------------------------------------------
2024-04-11 21:14:48: case.submit success 4092515.desched1
 ---------------------------------------------------
2024-04-11 21:14:54: case.run starting 4092514.desched1
 ---------------------------------------------------
2024-04-11 21:14:57: model execution starting 4092514.desched1
 ---------------------------------------------------
2024-04-11 21:21:59: model execution success 4092514.desched1
 ---------------------------------------------------
2024-04-11 21:21:59: case.run success 4092514.desched1
 ---------------------------------------------------
2024-04-11 21:22:15: st_archive starting 4092515.desched1
 ---------------------------------------------------
2024-04-11 21:22:17: st_archive success 4092515.desched1
 ---------------------------------------------------
2024-04-11 21:22:25: case.submit starting 4092552.desched1
 ---------------------------------------------------
2024-04-11 21:22:25: case.submit success 4092552.desched1
 ---------------------------------------------------
2024-04-11 21:22:32: case.run starting 4092551.desched1
 ---------------------------------------------------
2024-04-11 21:22:35: model execution starting 4092551.desched1
 ---------------------------------------------------
2024-04-11 21:29:36: model execution success 4092551.desched1
 ---------------------------------------------------
2024-04-11 21:29:36: case.run success 4092551.desched1
 ---------------------------------------------------
2024-04-11 21:29:49: st_archive starting 4092552.desched1
 ---------------------------------------------------
2024-04-11 21:29:52: st_archive success 4092552.desched1
 ---------------------------------------------------
2024-04-11 21:30:01: case.submit starting 4092596.desched1
 ---------------------------------------------------
2024-04-11 21:30:01: case.submit success 4092596.desched1
 ---------------------------------------------------
2024-04-11 21:30:10: case.run starting 4092595.desched1
 ---------------------------------------------------
2024-04-11 21:30:12: model execution starting 4092595.desched1
 ---------------------------------------------------
2024-04-11 21:37:10: model execution success 4092595.desched1
 ---------------------------------------------------
2024-04-11 21:37:10: case.run success 4092595.desched1
 ---------------------------------------------------
2024-04-11 21:37:30: st_archive starting 4092596.desched1
 ---------------------------------------------------
2024-04-11 21:37:31: st_archive success 4092596.desched1
 ---------------------------------------------------
2024-04-11 21:37:37: case.submit starting 4092634.desched1
 ---------------------------------------------------
2024-04-11 21:37:37: case.submit success 4092634.desched1
 ---------------------------------------------------
2024-04-11 21:37:45: case.run starting 4092633.desched1
 ---------------------------------------------------
2024-04-11 21:37:47: model execution starting 4092633.desched1
 ---------------------------------------------------
2024-04-11 21:44:44: model execution success 4092633.desched1
 ---------------------------------------------------
2024-04-11 21:44:44: case.run success 4092633.desched1
 ---------------------------------------------------
2024-04-11 21:45:01: st_archive starting 4092634.desched1
 ---------------------------------------------------
2024-04-11 21:45:02: st_archive success 4092634.desched1
 ---------------------------------------------------
2024-04-11 21:45:08: case.submit starting 4092677.desched1
 ---------------------------------------------------
2024-04-11 21:45:08: case.submit success 4092677.desched1
 ---------------------------------------------------
2024-04-11 21:45:15: case.run starting 4092676.desched1
 ---------------------------------------------------
2024-04-11 21:45:18: model execution starting 4092676.desched1
 ---------------------------------------------------
2024-04-11 21:52:15: model execution success 4092676.desched1
 ---------------------------------------------------
2024-04-11 21:52:15: case.run success 4092676.desched1
 ---------------------------------------------------
2024-04-11 21:52:31: st_archive starting 4092677.desched1
 ---------------------------------------------------
2024-04-11 21:52:35: st_archive success 4092677.desched1
 ---------------------------------------------------
2024-04-11 21:52:45: case.submit starting 4092743.desched1
 ---------------------------------------------------
2024-04-11 21:52:45: case.submit success 4092743.desched1
 ---------------------------------------------------
2024-04-11 21:52:52: case.run starting 4092742.desched1
 ---------------------------------------------------
2024-04-11 21:52:55: model execution starting 4092742.desched1
 ---------------------------------------------------
2024-04-11 21:59:57: model execution success 4092742.desched1
 ---------------------------------------------------
2024-04-11 21:59:57: case.run success 4092742.desched1
 ---------------------------------------------------
2024-04-11 22:00:12: st_archive starting 4092743.desched1
 ---------------------------------------------------
2024-04-11 22:00:14: st_archive success 4092743.desched1
 ---------------------------------------------------
2024-04-11 22:00:24: case.submit starting 4092802.desched1
 ---------------------------------------------------
2024-04-11 22:00:24: case.submit success 4092802.desched1
 ---------------------------------------------------
2024-04-11 22:00:30: case.run starting 4092801.desched1
 ---------------------------------------------------
2024-04-11 22:00:34: model execution starting 4092801.desched1
 ---------------------------------------------------
2024-04-11 22:07:32: model execution success 4092801.desched1
 ---------------------------------------------------
2024-04-11 22:07:32: case.run success 4092801.desched1
 ---------------------------------------------------
2024-04-11 22:07:45: st_archive starting 4092802.desched1
 ---------------------------------------------------
2024-04-11 22:07:47: st_archive success 4092802.desched1
 ---------------------------------------------------
2024-04-11 22:07:57: case.submit starting 4092857.desched1
 ---------------------------------------------------
2024-04-11 22:07:57: case.submit success 4092857.desched1
 ---------------------------------------------------
2024-04-11 22:08:03: case.run starting 4092856.desched1
 ---------------------------------------------------
2024-04-11 22:08:06: model execution starting 4092856.desched1
 ---------------------------------------------------
2024-04-11 22:15:04: model execution success 4092856.desched1
 ---------------------------------------------------
2024-04-11 22:15:04: case.run success 4092856.desched1
 ---------------------------------------------------
2024-04-11 22:15:21: st_archive starting 4092857.desched1
 ---------------------------------------------------
2024-04-11 22:15:23: st_archive success 4092857.desched1
 ---------------------------------------------------
2024-04-11 22:15:34: case.submit starting 4092917.desched1
 ---------------------------------------------------
2024-04-11 22:15:34: case.submit success 4092917.desched1
 ---------------------------------------------------
2024-04-11 22:15:40: case.run starting 4092916.desched1
 ---------------------------------------------------
2024-04-11 22:15:44: model execution starting 4092916.desched1
 ---------------------------------------------------
2024-04-11 22:22:49: model execution success 4092916.desched1
 ---------------------------------------------------
2024-04-11 22:22:49: case.run success 4092916.desched1
 ---------------------------------------------------
2024-04-11 22:23:29: st_archive starting 4092917.desched1
 ---------------------------------------------------
2024-04-11 22:23:31: st_archive success 4092917.desched1
 ---------------------------------------------------
2024-04-11 22:23:39: case.submit starting 4092978.desched1
 ---------------------------------------------------
2024-04-11 22:23:39: case.submit success 4092978.desched1
 ---------------------------------------------------
2024-04-11 22:23:46: case.run starting 4092977.desched1
 ---------------------------------------------------
2024-04-11 22:23:49: model execution starting 4092977.desched1
 ---------------------------------------------------
2024-04-11 22:31:01: model execution success 4092977.desched1
 ---------------------------------------------------
2024-04-11 22:31:01: case.run success 4092977.desched1
 ---------------------------------------------------
2024-04-11 22:31:23: st_archive starting 4092978.desched1
 ---------------------------------------------------
2024-04-11 22:31:24: st_archive success 4092978.desched1
 ---------------------------------------------------
2024-04-11 22:31:30: case.submit starting 4093034.desched1
 ---------------------------------------------------
2024-04-11 22:31:30: case.submit success 4093034.desched1
 ---------------------------------------------------
2024-04-11 22:31:37: case.run starting 4093033.desched1
 ---------------------------------------------------
2024-04-11 22:31:41: model execution starting 4093033.desched1
 ---------------------------------------------------
2024-04-11 22:38:39: model execution success 4093033.desched1
 ---------------------------------------------------
2024-04-11 22:38:39: case.run success 4093033.desched1
 ---------------------------------------------------
2024-04-11 22:38:56: st_archive starting 4093034.desched1
 ---------------------------------------------------
2024-04-11 22:38:57: st_archive success 4093034.desched1
 ---------------------------------------------------
2024-04-11 22:39:07: case.submit starting 4093135.desched1
 ---------------------------------------------------
2024-04-11 22:39:07: case.submit success 4093135.desched1
 ---------------------------------------------------
2024-04-11 22:39:15: case.run starting 4093134.desched1
 ---------------------------------------------------
2024-04-11 22:39:21: model execution starting 4093134.desched1
 ---------------------------------------------------
2024-04-11 22:46:24: model execution success 4093134.desched1
 ---------------------------------------------------
2024-04-11 22:46:24: case.run success 4093134.desched1
 ---------------------------------------------------
2024-04-11 22:46:45: st_archive starting 4093135.desched1
 ---------------------------------------------------
2024-04-11 22:46:46: st_archive success 4093135.desched1
 ---------------------------------------------------
2024-04-11 22:46:54: case.submit starting 4093273.desched1
 ---------------------------------------------------
2024-04-11 22:46:54: case.submit success 4093273.desched1
 ---------------------------------------------------
2024-04-11 22:47:04: case.run starting 4093272.desched1
 ---------------------------------------------------
2024-04-11 22:47:08: model execution starting 4093272.desched1
 ---------------------------------------------------
2024-04-11 22:54:10: model execution success 4093272.desched1
 ---------------------------------------------------
2024-04-11 22:54:10: case.run success 4093272.desched1
 ---------------------------------------------------
2024-04-11 22:54:30: st_archive starting 4093273.desched1
 ---------------------------------------------------
2024-04-11 22:54:31: st_archive success 4093273.desched1
 ---------------------------------------------------
2024-04-11 22:54:41: case.submit starting 4093405.desched1
 ---------------------------------------------------
2024-04-11 22:54:41: case.submit success 4093405.desched1
 ---------------------------------------------------
2024-04-11 22:54:52: case.run starting 4093404.desched1
 ---------------------------------------------------
2024-04-11 22:54:55: model execution starting 4093404.desched1
 ---------------------------------------------------
2024-04-11 23:02:01: model execution success 4093404.desched1
 ---------------------------------------------------
2024-04-11 23:02:01: case.run success 4093404.desched1
 ---------------------------------------------------
2024-04-11 23:02:18: st_archive starting 4093405.desched1
 ---------------------------------------------------
2024-04-11 23:02:19: st_archive success 4093405.desched1
 ---------------------------------------------------
2024-04-11 23:02:26: case.submit starting 4093560.desched1
 ---------------------------------------------------
2024-04-11 23:02:26: case.submit success 4093560.desched1
 ---------------------------------------------------
2024-04-11 23:02:34: case.run starting 4093559.desched1
 ---------------------------------------------------
2024-04-11 23:02:37: model execution starting 4093559.desched1
 ---------------------------------------------------
2024-04-11 23:09:38: model execution success 4093559.desched1
 ---------------------------------------------------
2024-04-11 23:09:38: case.run success 4093559.desched1
 ---------------------------------------------------
2024-04-11 23:09:52: st_archive starting 4093560.desched1
 ---------------------------------------------------
2024-04-11 23:09:53: st_archive success 4093560.desched1
 ---------------------------------------------------
2024-04-11 23:10:01: case.submit starting 4093622.desched1
 ---------------------------------------------------
2024-04-11 23:10:01: case.submit success 4093622.desched1
 ---------------------------------------------------
2024-04-11 23:10:12: case.run starting 4093621.desched1
 ---------------------------------------------------