!----------------------------------------------------------------------------------
! Users should add all user specific namelist changes below in the form of 
! namelist_var = new_namelist_value 
! NOTE: namelist variable rtm_tstep CAN ONLY be changed by modifying the value
!       of the xml variable ROF_NCPL in env_run.xml
!----------------------------------------------------------------------------------

frivinp_rtm = '/glade/work/marielj/inputdata/lnd/clm2/surfdata_map/hillslope/surfdata_1x1pt_US-MBP_hist_16pfts_Irrig_CMIP6_simyr2000_HAND_4_col_hillslope.nc'
