2024-06-06 09:21:09: case.setup starting 4740759.desched1
 ---------------------------------------------------
2024-06-06 09:21:11: case.setup success 4740759.desched1
 ---------------------------------------------------
2024-06-06 09:23:07: case.build starting 
 ---------------------------------------------------
2024-06-06 09:28:46: case.build error 
ERROR: BUILD FAIL: clm.buildlib failed, cat /glade/derecho/scratch/marielj/hillslope-bayes-opt-mefsoilpftmods/bld/lnd.bldlog.240606-092307
 ---------------------------------------------------
2024-06-06 12:27:42: build.clean starting 
 ---------------------------------------------------
2024-06-06 12:27:45: build.clean success 
 ---------------------------------------------------
2024-06-06 12:27:50: case.build starting 
 ---------------------------------------------------
2024-06-06 12:31:04: case.build starting 
 ---------------------------------------------------
2024-06-06 12:36:54: case.build error 
ERROR: BUILD FAIL: buildexe failed, cat /glade/derecho/scratch/marielj/hillslope-bayes-opt-mefsoilpftmods/bld/cesm.bldlog.240606-123104
 ---------------------------------------------------
2024-06-06 12:39:50: build.clean starting 
 ---------------------------------------------------
2024-06-06 12:39:52: build.clean success 
 ---------------------------------------------------
2024-06-06 12:40:30: case.build starting 
 ---------------------------------------------------
2024-06-06 12:46:39: case.build success 
 ---------------------------------------------------
2024-06-07 11:01:40: build.clean starting 
 ---------------------------------------------------
2024-06-07 11:01:42: build.clean success 
 ---------------------------------------------------
2024-06-07 11:02:17: case.build starting 
 ---------------------------------------------------
2024-06-07 11:09:21: case.build success 
 ---------------------------------------------------
2024-06-07 11:12:49: case.submit starting 4752737.desched1
 ---------------------------------------------------
2024-06-07 11:12:49: case.submit success 4752737.desched1
 ---------------------------------------------------
2024-06-07 11:13:12: case.run starting 4752736.desched1
 ---------------------------------------------------
2024-06-07 11:13:15: model execution starting 4752736.desched1
 ---------------------------------------------------
2024-06-07 11:20:58: model execution success 4752736.desched1
 ---------------------------------------------------
2024-06-07 11:20:58: case.run success 4752736.desched1
 ---------------------------------------------------
2024-06-07 11:21:27: st_archive starting 4752737.desched1
 ---------------------------------------------------
2024-06-07 11:21:29: st_archive success 4752737.desched1
 ---------------------------------------------------
2024-06-07 11:21:39: case.submit starting 4752799.desched1
 ---------------------------------------------------
2024-06-07 11:21:39: case.submit success 4752799.desched1
 ---------------------------------------------------
2024-06-07 11:22:09: case.run starting 4752798.desched1
 ---------------------------------------------------
2024-06-07 11:22:12: model execution starting 4752798.desched1
 ---------------------------------------------------
2024-06-07 11:29:56: model execution success 4752798.desched1
 ---------------------------------------------------
2024-06-07 11:29:56: case.run success 4752798.desched1
 ---------------------------------------------------
2024-06-07 11:34:16: st_archive starting 4752799.desched1
 ---------------------------------------------------
2024-06-07 11:34:19: st_archive success 4752799.desched1
 ---------------------------------------------------
2024-06-07 11:34:27: case.submit starting 4752943.desched1
 ---------------------------------------------------
2024-06-07 11:34:27: case.submit success 4752943.desched1
 ---------------------------------------------------
2024-06-07 11:34:44: case.run starting 4752942.desched1
 ---------------------------------------------------
2024-06-07 11:34:46: model execution starting 4752942.desched1
 ---------------------------------------------------
2024-06-07 11:42:28: model execution success 4752942.desched1
 ---------------------------------------------------
2024-06-07 11:42:28: case.run success 4752942.desched1
 ---------------------------------------------------
2024-06-07 11:50:07: st_archive starting 4752943.desched1
 ---------------------------------------------------
2024-06-07 11:50:10: st_archive success 4752943.desched1
 ---------------------------------------------------
2024-06-07 11:50:19: case.submit starting 4753049.desched1
 ---------------------------------------------------
2024-06-07 11:50:19: case.submit success 4753049.desched1
 ---------------------------------------------------
2024-06-07 11:50:35: case.run starting 4753048.desched1
 ---------------------------------------------------
2024-06-07 11:50:38: model execution starting 4753048.desched1
 ---------------------------------------------------
2024-06-07 11:58:14: model execution success 4753048.desched1
 ---------------------------------------------------
2024-06-07 11:58:14: case.run success 4753048.desched1
 ---------------------------------------------------
2024-06-07 11:58:53: st_archive starting 4753049.desched1
 ---------------------------------------------------
2024-06-07 11:58:59: st_archive success 4753049.desched1
 ---------------------------------------------------
2024-06-07 11:59:11: case.submit starting 4753154.desched1
 ---------------------------------------------------
2024-06-07 11:59:11: case.submit success 4753154.desched1
 ---------------------------------------------------
2024-06-07 11:59:40: case.run starting 4753150.desched1
 ---------------------------------------------------
2024-06-07 11:59:49: model execution starting 4753150.desched1
 ---------------------------------------------------
2024-06-07 12:07:43: model execution success 4753150.desched1
 ---------------------------------------------------
2024-06-07 12:07:44: case.run success 4753150.desched1
 ---------------------------------------------------
2024-06-07 12:08:24: st_archive starting 4753154.desched1
 ---------------------------------------------------
2024-06-07 12:08:28: st_archive success 4753154.desched1
 ---------------------------------------------------
2024-06-07 12:08:49: case.submit starting 4753281.desched1
 ---------------------------------------------------
2024-06-07 12:08:49: case.submit success 4753281.desched1
 ---------------------------------------------------
2024-06-07 12:09:16: case.run starting 4753280.desched1
 ---------------------------------------------------
2024-06-07 12:09:26: model execution starting 4753280.desched1
 ---------------------------------------------------
2024-06-07 12:17:21: model execution success 4753280.desched1
 ---------------------------------------------------
2024-06-07 12:17:21: case.run success 4753280.desched1
 ---------------------------------------------------
2024-06-07 12:18:00: st_archive starting 4753281.desched1
 ---------------------------------------------------
2024-06-07 12:18:07: st_archive success 4753281.desched1
 ---------------------------------------------------
2024-06-07 12:18:28: case.submit starting 4753392.desched1
 ---------------------------------------------------
2024-06-07 12:18:28: case.submit success 4753392.desched1
 ---------------------------------------------------
2024-06-07 12:18:49: case.run starting 4753391.desched1
 ---------------------------------------------------
2024-06-07 12:18:58: model execution starting 4753391.desched1
 ---------------------------------------------------
2024-06-07 12:26:58: model execution success 4753391.desched1
 ---------------------------------------------------
2024-06-07 12:26:58: case.run success 4753391.desched1
 ---------------------------------------------------
2024-06-07 12:27:29: st_archive starting 4753392.desched1
 ---------------------------------------------------
2024-06-07 12:27:31: st_archive success 4753392.desched1
 ---------------------------------------------------
2024-06-07 12:27:40: case.submit starting 4753513.desched1
 ---------------------------------------------------
2024-06-07 12:27:40: case.submit success 4753513.desched1
 ---------------------------------------------------
2024-06-07 12:28:19: case.run starting 4753512.desched1
 ---------------------------------------------------
2024-06-07 12:28:24: model execution starting 4753512.desched1
 ---------------------------------------------------
2024-06-07 12:36:20: model execution success 4753512.desched1
 ---------------------------------------------------
2024-06-07 12:36:20: case.run success 4753512.desched1
 ---------------------------------------------------
2024-06-07 12:37:12: st_archive starting 4753513.desched1
 ---------------------------------------------------
2024-06-07 12:37:16: st_archive success 4753513.desched1
 ---------------------------------------------------
2024-06-07 12:37:30: case.submit starting 4753618.desched1
 ---------------------------------------------------
2024-06-07 12:37:30: case.submit success 4753618.desched1
 ---------------------------------------------------
2024-06-07 12:37:57: case.run starting 4753617.desched1
 ---------------------------------------------------
2024-06-07 12:38:04: model execution starting 4753617.desched1
 ---------------------------------------------------
2024-06-07 12:45:54: model execution success 4753617.desched1
 ---------------------------------------------------
2024-06-07 12:45:54: case.run success 4753617.desched1
 ---------------------------------------------------
2024-06-07 12:46:20: st_archive starting 4753618.desched1
 ---------------------------------------------------
2024-06-07 12:46:22: st_archive success 4753618.desched1
 ---------------------------------------------------
2024-06-07 12:46:31: case.submit starting 4754059.desched1
 ---------------------------------------------------
2024-06-07 12:46:31: case.submit success 4754059.desched1
 ---------------------------------------------------
2024-06-07 12:47:04: case.run starting 4754058.desched1
 ---------------------------------------------------
2024-06-07 12:47:09: model execution starting 4754058.desched1
 ---------------------------------------------------
2024-06-07 12:54:54: model execution success 4754058.desched1
 ---------------------------------------------------
2024-06-07 12:54:54: case.run success 4754058.desched1
 ---------------------------------------------------
2024-06-07 12:55:20: st_archive starting 4754059.desched1
 ---------------------------------------------------
2024-06-07 12:55:22: st_archive success 4754059.desched1
 ---------------------------------------------------
2024-06-07 12:55:37: case.submit starting 4754225.desched1
 ---------------------------------------------------
2024-06-07 12:55:37: case.submit success 4754225.desched1
 ---------------------------------------------------
2024-06-07 13:03:44: case.run starting 4754223.desched1
 ---------------------------------------------------
2024-06-07 13:03:52: model execution starting 4754223.desched1
 ---------------------------------------------------
2024-06-07 13:11:39: model execution success 4754223.desched1
 ---------------------------------------------------
2024-06-07 13:11:39: case.run success 4754223.desched1
 ---------------------------------------------------
2024-06-07 13:12:15: st_archive starting 4754225.desched1
 ---------------------------------------------------
2024-06-07 13:12:17: st_archive success 4754225.desched1
 ---------------------------------------------------
2024-06-07 13:12:27: case.submit starting 4754433.desched1
 ---------------------------------------------------
2024-06-07 13:12:27: case.submit success 4754433.desched1
 ---------------------------------------------------
2024-06-07 13:12:36: case.run starting 4754432.desched1
 ---------------------------------------------------
2024-06-07 13:12:39: model execution starting 4754432.desched1
 ---------------------------------------------------
2024-06-07 13:20:24: model execution success 4754432.desched1
 ---------------------------------------------------
2024-06-07 13:20:24: case.run success 4754432.desched1
 ---------------------------------------------------
2024-06-07 13:21:07: st_archive starting 4754433.desched1
 ---------------------------------------------------
2024-06-07 13:21:09: st_archive success 4754433.desched1
 ---------------------------------------------------
2024-06-07 13:21:20: case.submit starting 4754510.desched1
 ---------------------------------------------------
2024-06-07 13:21:20: case.submit success 4754510.desched1
 ---------------------------------------------------
2024-06-07 13:21:54: case.run starting 4754509.desched1
 ---------------------------------------------------
2024-06-07 13:22:02: model execution starting 4754509.desched1
 ---------------------------------------------------
2024-06-07 13:29:49: model execution success 4754509.desched1
 ---------------------------------------------------
2024-06-07 13:29:49: case.run success 4754509.desched1
 ---------------------------------------------------
2024-06-07 13:31:01: st_archive starting 4754510.desched1
 ---------------------------------------------------
2024-06-07 13:31:03: st_archive success 4754510.desched1
 ---------------------------------------------------
2024-06-07 13:31:17: case.submit starting 4754596.desched1
 ---------------------------------------------------
2024-06-07 13:31:17: case.submit success 4754596.desched1
 ---------------------------------------------------
2024-06-07 13:32:03: case.run starting 4754595.desched1
 ---------------------------------------------------
2024-06-07 13:32:07: model execution starting 4754595.desched1
 ---------------------------------------------------
2024-06-07 13:39:52: model execution success 4754595.desched1
 ---------------------------------------------------
2024-06-07 13:39:52: case.run success 4754595.desched1
 ---------------------------------------------------
2024-06-07 13:40:19: st_archive starting 4754596.desched1
 ---------------------------------------------------
2024-06-07 13:40:21: st_archive success 4754596.desched1
 ---------------------------------------------------
2024-06-07 13:40:37: case.submit starting 4754685.desched1
 ---------------------------------------------------
2024-06-07 13:40:37: case.submit success 4754685.desched1
 ---------------------------------------------------
2024-06-07 13:42:38: case.run starting 4754684.desched1
 ---------------------------------------------------
2024-06-07 13:42:55: model execution starting 4754684.desched1
 ---------------------------------------------------
2024-06-07 13:51:34: model execution success 4754684.desched1
 ---------------------------------------------------
2024-06-07 13:51:34: case.run success 4754684.desched1
 ---------------------------------------------------
2024-06-07 13:53:49: st_archive starting 4754685.desched1
 ---------------------------------------------------
2024-06-07 13:53:51: st_archive success 4754685.desched1
 ---------------------------------------------------
2024-06-07 13:54:03: case.submit starting 4754789.desched1
 ---------------------------------------------------
2024-06-07 13:54:03: case.submit success 4754789.desched1
 ---------------------------------------------------
2024-06-07 13:54:19: case.run starting 4754788.desched1
 ---------------------------------------------------
2024-06-07 13:54:30: model execution starting 4754788.desched1
 ---------------------------------------------------
2024-06-07 14:02:49: model execution success 4754788.desched1
 ---------------------------------------------------
2024-06-07 14:03:04: case.run success 4754788.desched1
 ---------------------------------------------------
2024-06-07 14:04:23: st_archive starting 4754789.desched1
 ---------------------------------------------------
2024-06-07 14:04:27: st_archive success 4754789.desched1
 ---------------------------------------------------
2024-06-07 14:05:26: case.submit starting 4754906.desched1
 ---------------------------------------------------
2024-06-07 14:05:27: case.submit success 4754906.desched1
 ---------------------------------------------------
2024-06-07 14:06:24: case.run starting 4754904.desched1
 ---------------------------------------------------
2024-06-07 14:06:33: model execution starting 4754904.desched1
 ---------------------------------------------------
2024-06-07 14:14:47: model execution success 4754904.desched1
 ---------------------------------------------------
2024-06-07 14:14:47: case.run success 4754904.desched1
 ---------------------------------------------------
2024-06-07 14:15:32: st_archive starting 4754906.desched1
 ---------------------------------------------------
2024-06-07 14:15:36: st_archive success 4754906.desched1
 ---------------------------------------------------
2024-06-07 14:15:58: case.submit starting 4754991.desched1
 ---------------------------------------------------
2024-06-07 14:15:58: case.submit success 4754991.desched1
 ---------------------------------------------------
2024-06-07 14:16:50: case.run starting 4754990.desched1
 ---------------------------------------------------
2024-06-07 14:17:07: model execution starting 4754990.desched1
 ---------------------------------------------------
2024-06-07 14:25:08: model execution success 4754990.desched1
 ---------------------------------------------------
2024-06-07 14:25:09: case.run success 4754990.desched1
 ---------------------------------------------------
2024-06-07 14:26:06: st_archive starting 4754991.desched1
 ---------------------------------------------------
2024-06-07 14:26:08: st_archive success 4754991.desched1
 ---------------------------------------------------
2024-06-07 14:26:20: case.submit starting 4755051.desched1
 ---------------------------------------------------
2024-06-07 14:26:20: case.submit success 4755051.desched1
 ---------------------------------------------------
2024-06-07 14:26:42: case.run starting 4755050.desched1
 ---------------------------------------------------
2024-06-07 14:27:00: model execution starting 4755050.desched1
 ---------------------------------------------------
2024-06-07 14:35:17: model execution success 4755050.desched1
 ---------------------------------------------------
2024-06-07 14:35:17: case.run success 4755050.desched1
 ---------------------------------------------------
2024-06-07 14:36:53: st_archive starting 4755051.desched1
 ---------------------------------------------------
2024-06-07 14:37:01: st_archive success 4755051.desched1
 ---------------------------------------------------
2024-06-07 14:37:19: case.submit starting 4755123.desched1
 ---------------------------------------------------
2024-06-07 14:37:19: case.submit success 4755123.desched1
 ---------------------------------------------------
2024-06-07 14:39:14: case.run starting 4755122.desched1
 ---------------------------------------------------
2024-06-07 14:39:25: model execution starting 4755122.desched1
 ---------------------------------------------------
2024-06-07 14:47:25: model execution success 4755122.desched1
 ---------------------------------------------------
2024-06-07 14:47:25: case.run success 4755122.desched1
 ---------------------------------------------------
2024-06-07 14:52:27: st_archive starting 4755123.desched1
 ---------------------------------------------------
2024-06-07 14:52:33: st_archive success 4755123.desched1
 ---------------------------------------------------
2024-06-07 14:52:49: case.submit starting 4755223.desched1
 ---------------------------------------------------
2024-06-07 14:52:50: case.submit success 4755223.desched1
 ---------------------------------------------------
2024-06-07 14:54:32: case.run starting 4755222.desched1
 ---------------------------------------------------
2024-06-07 14:54:56: model execution starting 4755222.desched1
 ---------------------------------------------------
2024-06-07 15:03:04: model execution success 4755222.desched1
 ---------------------------------------------------
2024-06-07 15:03:05: case.run success 4755222.desched1
 ---------------------------------------------------
2024-06-07 15:13:56: st_archive starting 4755223.desched1
 ---------------------------------------------------
2024-06-07 15:13:58: st_archive success 4755223.desched1
 ---------------------------------------------------
2024-06-07 15:14:18: case.submit starting 4755448.desched1
 ---------------------------------------------------
2024-06-07 15:14:18: case.submit success 4755448.desched1
 ---------------------------------------------------
2024-06-07 15:15:41: case.run starting 4755447.desched1
 ---------------------------------------------------
2024-06-07 15:16:09: model execution starting 4755447.desched1
 ---------------------------------------------------
2024-06-07 15:24:25: model execution success 4755447.desched1
 ---------------------------------------------------
2024-06-07 15:24:26: case.run success 4755447.desched1
 ---------------------------------------------------
2024-06-07 15:25:57: st_archive starting 4755448.desched1
 ---------------------------------------------------
2024-06-07 15:26:02: st_archive success 4755448.desched1
 ---------------------------------------------------
2024-06-07 15:26:31: case.submit starting 4755671.desched1
 ---------------------------------------------------
2024-06-07 15:26:32: case.submit success 4755671.desched1
 ---------------------------------------------------
2024-06-07 15:27:56: case.run starting 4755670.desched1
 ---------------------------------------------------
2024-06-07 15:28:29: model execution starting 4755670.desched1
 ---------------------------------------------------
2024-06-07 15:37:01: model execution success 4755670.desched1
 ---------------------------------------------------
2024-06-07 15:37:01: case.run success 4755670.desched1
 ---------------------------------------------------
2024-06-07 15:55:09: st_archive starting 4755671.desched1
 ---------------------------------------------------
2024-06-07 15:55:16: st_archive success 4755671.desched1
 ---------------------------------------------------
2024-06-07 15:55:41: case.submit starting 4756177.desched1
 ---------------------------------------------------
2024-06-07 15:55:41: case.submit success 4756177.desched1
 ---------------------------------------------------
2024-06-07 15:56:36: case.run starting 4756176.desched1
 ---------------------------------------------------
2024-06-07 15:57:13: model execution starting 4756176.desched1
 ---------------------------------------------------
2024-06-07 16:06:18: model execution success 4756176.desched1
 ---------------------------------------------------
2024-06-07 16:06:28: case.run success 4756176.desched1
 ---------------------------------------------------
2024-06-07 16:07:25: st_archive starting 4756177.desched1
 ---------------------------------------------------
2024-06-07 16:07:27: st_archive success 4756177.desched1
 ---------------------------------------------------
2024-06-07 16:08:48: case.submit starting 4756317.desched1
 ---------------------------------------------------
2024-06-07 16:08:48: case.submit success 4756317.desched1
 ---------------------------------------------------
2024-06-07 16:09:21: case.run starting 4756316.desched1
 ---------------------------------------------------
2024-06-07 16:10:40: model execution starting 4756316.desched1
 ---------------------------------------------------
2024-06-07 16:19:06: model execution success 4756316.desched1
 ---------------------------------------------------
2024-06-07 16:19:07: case.run success 4756316.desched1
 ---------------------------------------------------
2024-06-07 16:41:18: st_archive starting 4756317.desched1
 ---------------------------------------------------
2024-06-07 16:41:22: st_archive success 4756317.desched1
 ---------------------------------------------------
2024-06-07 16:41:38: case.submit starting 4757034.desched1
 ---------------------------------------------------
2024-06-07 16:41:38: case.submit success 4757034.desched1
 ---------------------------------------------------
2024-06-07 16:42:03: case.run starting 4757033.desched1
 ---------------------------------------------------
2024-06-07 16:42:18: model execution starting 4757033.desched1
 ---------------------------------------------------
2024-06-07 16:50:09: model execution success 4757033.desched1
 ---------------------------------------------------
2024-06-07 16:50:09: case.run success 4757033.desched1
 ---------------------------------------------------
2024-06-07 16:50:35: st_archive starting 4757034.desched1
 ---------------------------------------------------
2024-06-07 16:50:39: st_archive success 4757034.desched1
 ---------------------------------------------------
2024-06-07 16:51:06: case.submit starting 4757122.desched1
 ---------------------------------------------------
2024-06-07 16:51:06: case.submit success 4757122.desched1
 ---------------------------------------------------
2024-06-07 16:51:46: case.run starting 4757121.desched1
 ---------------------------------------------------
2024-06-07 16:52:12: model execution starting 4757121.desched1
 ---------------------------------------------------
2024-06-07 17:00:23: model execution success 4757121.desched1
 ---------------------------------------------------
2024-06-07 17:00:23: case.run success 4757121.desched1
 ---------------------------------------------------
2024-06-07 17:00:47: st_archive starting 4757122.desched1
 ---------------------------------------------------
2024-06-07 17:00:50: st_archive success 4757122.desched1
 ---------------------------------------------------
2024-06-07 17:01:11: case.submit starting 4757276.desched1
 ---------------------------------------------------
2024-06-07 17:01:11: case.submit success 4757276.desched1
 ---------------------------------------------------
2024-06-07 17:02:02: case.run starting 4757275.desched1
 ---------------------------------------------------
2024-06-07 17:02:18: model execution starting 4757275.desched1
 ---------------------------------------------------
2024-06-07 17:10:27: model execution success 4757275.desched1
 ---------------------------------------------------
2024-06-07 17:10:27: case.run success 4757275.desched1
 ---------------------------------------------------
2024-06-07 17:11:04: st_archive starting 4757276.desched1
 ---------------------------------------------------
2024-06-07 17:11:08: st_archive success 4757276.desched1
 ---------------------------------------------------
2024-06-07 17:11:28: case.submit starting 4757425.desched1
 ---------------------------------------------------
2024-06-07 17:11:28: case.submit success 4757425.desched1
 ---------------------------------------------------
2024-06-07 17:11:57: case.run starting 4757424.desched1
 ---------------------------------------------------
2024-06-07 17:12:15: model execution starting 4757424.desched1
 ---------------------------------------------------
2024-06-07 17:20:14: model execution success 4757424.desched1
 ---------------------------------------------------
2024-06-07 17:20:14: case.run success 4757424.desched1
 ---------------------------------------------------
2024-06-07 17:25:45: st_archive starting 4757425.desched1
 ---------------------------------------------------
2024-06-07 17:25:49: st_archive success 4757425.desched1
 ---------------------------------------------------
2024-06-07 17:26:01: case.submit starting 4757572.desched1
 ---------------------------------------------------
2024-06-07 17:26:01: case.submit success 4757572.desched1
 ---------------------------------------------------
2024-06-07 17:26:37: case.run starting 4757571.desched1
 ---------------------------------------------------
2024-06-07 17:26:50: model execution starting 4757571.desched1
 ---------------------------------------------------
2024-06-07 17:34:58: model execution success 4757571.desched1
 ---------------------------------------------------
2024-06-07 17:34:58: case.run success 4757571.desched1
 ---------------------------------------------------
2024-06-07 17:35:50: st_archive starting 4757572.desched1
 ---------------------------------------------------
2024-06-07 17:35:53: st_archive success 4757572.desched1
 ---------------------------------------------------
2024-06-07 17:36:07: case.submit starting 4757814.desched1
 ---------------------------------------------------
2024-06-07 17:36:07: case.submit success 4757814.desched1
 ---------------------------------------------------
2024-06-07 17:36:35: case.run starting 4757812.desched1
 ---------------------------------------------------
2024-06-07 17:36:41: model execution starting 4757812.desched1
 ---------------------------------------------------
2024-06-07 17:44:37: model execution success 4757812.desched1
 ---------------------------------------------------
2024-06-07 17:44:37: case.run success 4757812.desched1
 ---------------------------------------------------
2024-06-07 17:45:14: st_archive starting 4757814.desched1
 ---------------------------------------------------
2024-06-07 17:45:17: st_archive success 4757814.desched1
 ---------------------------------------------------
2024-06-07 17:45:28: case.submit starting 4758102.desched1
 ---------------------------------------------------
2024-06-07 17:45:28: case.submit success 4758102.desched1
 ---------------------------------------------------
2024-06-07 17:45:47: case.run starting 4758101.desched1
 ---------------------------------------------------
2024-06-07 17:45:53: model execution starting 4758101.desched1