2024-04-16 09:28:06: case.setup starting 4141230.desched1
 ---------------------------------------------------
2024-04-16 09:28:08: case.setup success 4141230.desched1
 ---------------------------------------------------
2024-04-16 09:46:58: build.clean starting 
 ---------------------------------------------------
2024-04-16 09:46:59: build.clean success 
 ---------------------------------------------------
2024-04-16 09:47:04: case.build starting 
 ---------------------------------------------------
2024-04-16 09:53:10: case.build success 
 ---------------------------------------------------
2024-04-16 09:53:26: case.submit starting 4141582.desched1
 ---------------------------------------------------
2024-04-16 09:53:26: case.submit success 4141582.desched1
 ---------------------------------------------------
2024-04-16 10:12:02: case.submit starting 4141718.desched1
 ---------------------------------------------------
2024-04-16 10:12:02: case.submit success 4141718.desched1
 ---------------------------------------------------
2024-04-16 10:33:34: case.run starting 4141717.desched1
 ---------------------------------------------------
2024-04-16 10:33:38: model execution starting 4141717.desched1
 ---------------------------------------------------
2024-04-16 10:33:47: model execution error 
ERROR: Command: 'mpiexec  --label  --line-buffer  -n 1 /glade/derecho/scratch/marielj/hillslope-wte-calib-pfts-lowerbf/bld/cesm.exe   >> cesm.log.$LID 2>&1 ' failed with error '' from dir '/glade/derecho/scratch/marielj/hillslope-wte-calib-pfts-lowerbf/run'
 ---------------------------------------------------
2024-04-16 10:33:47: case.run error 
ERROR: RUN FAIL: Command 'mpiexec  --label  --line-buffer  -n 1 /glade/derecho/scratch/marielj/hillslope-wte-calib-pfts-lowerbf/bld/cesm.exe   >> cesm.log.$LID 2>&1 ' failed
See log file for details: /glade/derecho/scratch/marielj/hillslope-wte-calib-pfts-lowerbf/run/cesm.log.4141717.desched1.240416-103334
 ---------------------------------------------------
2024-04-16 10:37:24: build.clean starting 
 ---------------------------------------------------
2024-04-16 10:37:26: build.clean success 
 ---------------------------------------------------
2024-04-16 10:37:30: case.build starting 
 ---------------------------------------------------
2024-04-16 10:43:37: case.build success 
 ---------------------------------------------------
2024-04-16 10:46:30: case.submit starting 4142811.desched1
 ---------------------------------------------------
2024-04-16 10:46:30: case.submit success 4142811.desched1
 ---------------------------------------------------
2024-04-16 10:46:43: case.run starting 4142810.desched1
 ---------------------------------------------------
2024-04-16 10:46:47: model execution starting 4142810.desched1
 ---------------------------------------------------
2024-04-16 10:53:51: model execution success 4142810.desched1
 ---------------------------------------------------
2024-04-16 10:53:51: case.run success 4142810.desched1
 ---------------------------------------------------
2024-04-16 10:54:09: st_archive starting 4142811.desched1
 ---------------------------------------------------
2024-04-16 10:54:11: st_archive success 4142811.desched1
 ---------------------------------------------------
