2025-03-18 11:25:40: case.setup starting 8850737.desched1
 ---------------------------------------------------
2025-03-18 11:25:44: case.setup success 8850737.desched1
 ---------------------------------------------------
2025-03-18 11:43:35: case.build starting 
 ---------------------------------------------------
2025-03-18 11:49:21: case.build success 
 ---------------------------------------------------
2025-03-18 11:49:42: case.submit starting 8851500.desched1
 ---------------------------------------------------
2025-03-18 11:49:42: case.submit success 8851500.desched1
 ---------------------------------------------------
2025-03-18 11:50:07: case.run starting 8851499.desched1
 ---------------------------------------------------
2025-03-18 11:50:09: model execution starting 8851499.desched1
 ---------------------------------------------------
2025-03-18 11:50:17: model execution error 
ERROR: Command: 'mpiexec  --label  --line-buffer  -n 1 /glade/derecho/scratch/marielj/hillslope_probing_MEDLYNSLOPE_temperate_35/bld/cesm.exe   >> cesm.log.$LID 2>&1 ' failed with error '' from dir '/glade/derecho/scratch/marielj/hillslope_probing_MEDLYNSLOPE_temperate_35/run'
 ---------------------------------------------------
2025-03-18 11:50:17: case.run error 
ERROR: RUN FAIL: Command 'mpiexec  --label  --line-buffer  -n 1 /glade/derecho/scratch/marielj/hillslope_probing_MEDLYNSLOPE_temperate_35/bld/cesm.exe   >> cesm.log.$LID 2>&1 ' failed
See log file for details: /glade/derecho/scratch/marielj/hillslope_probing_MEDLYNSLOPE_temperate_35/run/cesm.log.8851499.desched1.250318-115007
 ---------------------------------------------------
2025-03-18 11:52:42: case.build starting 
 ---------------------------------------------------
2025-03-18 11:53:03: case.build success 
 ---------------------------------------------------
2025-03-18 12:01:16: case.submit starting 8851633.desched1
 ---------------------------------------------------
2025-03-18 12:01:16: case.submit success 8851633.desched1
 ---------------------------------------------------
2025-03-18 12:01:37: case.run starting 8851632.desched1
 ---------------------------------------------------
2025-03-18 12:01:40: model execution starting 8851632.desched1
 ---------------------------------------------------
2025-03-18 12:17:08: model execution success 8851632.desched1
 ---------------------------------------------------
2025-03-18 12:17:08: case.run success 8851632.desched1
 ---------------------------------------------------
2025-03-18 12:17:39: st_archive starting 8851633.desched1
 ---------------------------------------------------
2025-03-18 12:17:41: st_archive success 8851633.desched1
 ---------------------------------------------------
